
			<routes>
				<vType id="0" accel="2" decel="4.5" sigma="0.5" length="5" minGap="2.5" maxSpeed="14" guiShape="passenger"/>
				<vType id="1" accel="2" decel="4.5" sigma="0.5" length="3" minGap="2.5" maxSpeed="14" guiShape="passenger"/>
				<vType id="2" accel="2" decel="4.5" sigma="0.5" length="4" minGap="2.5" maxSpeed="14" guiShape="passenger"/>
				<vType id="3" accel="2" decel="4.5" sigma="0.5" length="10" minGap="3" maxSpeed="14" guiShape="bus"/>

				<route id="0" edges="west_right north_up" />
				<route id="1" edges="west_right east_right" />
				<route id="2" edges="west_right south_down" />

				<route id="3" edges="north_down east_right" />
				<route id="4" edges="north_down south_down" />
				<route id="5" edges="north_down west_left" />

				<route id="6" edges="east_left south_down" />
				<route id="7" edges="east_left west_left" />
				<route id="8" edges="east_left north_up" />

				<route id="9" edges="south_up west_left" />
				<route id="10" edges="south_up north_up" />
				<route id="11" edges="south_up east_right" />

			
    <vehicle id="veh_0" type="2" route="8" color="0.000000,0.000000,1.000000" depart="0" />
    <vehicle id="veh_1" type="2" route="9" color="1.000000,0.000000,0.000000" depart="6" />
    <vehicle id="veh_2" type="2" route="9" color="0.000000,0.000000,1.000000" depart="8" />
    <vehicle id="veh_3" type="0" route="0" color="0.000000,1.000000,1.000000" depart="9" />
    <vehicle id="veh_4" type="3" route="0" color="0.000000,0.000000,1.000000" depart="12" />
    <vehicle id="veh_5" type="2" route="0" color="0.000000,0.000000,1.000000" depart="16" />
    <vehicle id="veh_6" type="3" route="2" color="0.000000,1.000000,1.000000" depart="29" />
    <vehicle id="veh_7" type="3" route="6" color="1.000000,0.000000,0.000000" depart="30" />
    <vehicle id="veh_8" type="2" route="11" color="1.000000,0.000000,1.000000" depart="30" />
    <vehicle id="veh_9" type="0" route="6" color="1.000000,0.000000,0.000000" depart="31" />
    <vehicle id="veh_10" type="0" route="9" color="0.000000,1.000000,0.000000" depart="33" />
    <vehicle id="veh_11" type="2" route="6" color="1.000000,1.000000,1.000000" depart="39" />
    <vehicle id="veh_12" type="0" route="8" color="1.000000,1.000000,1.000000" depart="45" />
    <vehicle id="veh_13" type="2" route="8" color="1.000000,0.000000,0.000000" depart="51" />
    <vehicle id="veh_14" type="0" route="6" color="0.000000,1.000000,1.000000" depart="55" />
    <vehicle id="veh_15" type="3" route="7" color="1.000000,0.000000,0.000000" depart="56" />
    <vehicle id="veh_16" type="1" route="4" color="1.000000,0.000000,1.000000" depart="67" />
    <vehicle id="veh_17" type="2" route="9" color="1.000000,0.000000,1.000000" depart="67" />
    <vehicle id="veh_18" type="3" route="8" color="0.000000,1.000000,0.000000" depart="72" />
    <vehicle id="veh_19" type="0" route="8" color="0.000000,1.000000,1.000000" depart="76" />
    <vehicle id="veh_20" type="0" route="0" color="0.000000,1.000000,1.000000" depart="81" />
    <vehicle id="veh_21" type="1" route="2" color="0.000000,1.000000,1.000000" depart="86" />
    <vehicle id="veh_22" type="2" route="10" color="1.000000,0.000000,1.000000" depart="91" />
    <vehicle id="veh_23" type="1" route="4" color="0.000000,0.000000,1.000000" depart="95" />
    <vehicle id="veh_24" type="2" route="7" color="1.000000,1.000000,0.000000" depart="95" />
    <vehicle id="veh_25" type="1" route="0" color="1.000000,0.000000,0.000000" depart="97" />
    <vehicle id="veh_26" type="2" route="9" color="0.000000,0.000000,1.000000" depart="98" />
    <vehicle id="veh_27" type="3" route="2" color="1.000000,0.000000,1.000000" depart="103" />
    <vehicle id="veh_28" type="3" route="11" color="0.000000,1.000000,0.000000" depart="109" />
    <vehicle id="veh_29" type="0" route="1" color="1.000000,1.000000,0.000000" depart="114" />
    <vehicle id="veh_30" type="1" route="0" color="0.000000,0.000000,1.000000" depart="118" />
    <vehicle id="veh_31" type="2" route="7" color="1.000000,1.000000,0.000000" depart="122" />
    <vehicle id="veh_32" type="0" route="6" color="1.000000,1.000000,0.000000" depart="127" />
    <vehicle id="veh_33" type="1" route="7" color="1.000000,0.000000,0.000000" depart="131" />
    <vehicle id="veh_34" type="1" route="1" color="0.000000,0.000000,1.000000" depart="143" />
    <vehicle id="veh_35" type="1" route="7" color="1.000000,0.000000,0.000000" depart="145" />
    <vehicle id="veh_36" type="0" route="5" color="1.000000,1.000000,0.000000" depart="150" />
    <vehicle id="veh_37" type="1" route="0" color="0.000000,0.000000,1.000000" depart="151" />
    <vehicle id="veh_38" type="2" route="1" color="1.000000,1.000000,1.000000" depart="186" />
    <vehicle id="veh_39" type="0" route="10" color="0.000000,1.000000,1.000000" depart="194" />
    <vehicle id="veh_40" type="0" route="7" color="1.000000,0.000000,1.000000" depart="196" />
    <vehicle id="veh_41" type="3" route="4" color="0.000000,0.000000,1.000000" depart="207" />
    <vehicle id="veh_42" type="0" route="7" color="0.000000,0.000000,1.000000" depart="208" />
    <vehicle id="veh_43" type="3" route="0" color="0.000000,1.000000,0.000000" depart="214" />
    <vehicle id="veh_44" type="0" route="2" color="1.000000,0.000000,0.000000" depart="216" />
    <vehicle id="veh_45" type="2" route="10" color="1.000000,1.000000,0.000000" depart="218" />
    <vehicle id="veh_46" type="3" route="9" color="1.000000,0.000000,0.000000" depart="220" />
    <vehicle id="veh_47" type="0" route="3" color="1.000000,0.000000,0.000000" depart="222" />
    <vehicle id="veh_48" type="3" route="7" color="1.000000,0.000000,0.000000" depart="227" />
    <vehicle id="veh_49" type="3" route="10" color="0.000000,1.000000,1.000000" depart="239" />
    <vehicle id="veh_50" type="0" route="0" color="0.000000,0.000000,1.000000" depart="240" />
    <vehicle id="veh_51" type="1" route="7" color="1.000000,0.000000,0.000000" depart="240" />
    <vehicle id="veh_52" type="2" route="5" color="1.000000,0.000000,0.000000" depart="244" />
    <vehicle id="veh_53" type="1" route="6" color="1.000000,0.000000,0.000000" depart="244" />
    <vehicle id="veh_54" type="1" route="3" color="1.000000,0.000000,0.000000" depart="248" />
    <vehicle id="veh_55" type="0" route="1" color="1.000000,0.000000,0.000000" depart="252" />
    <vehicle id="veh_56" type="2" route="10" color="1.000000,1.000000,1.000000" depart="252" />
    <vehicle id="veh_57" type="1" route="6" color="1.000000,0.000000,1.000000" depart="253" />
    <vehicle id="veh_58" type="3" route="5" color="1.000000,1.000000,1.000000" depart="261" />
    <vehicle id="veh_59" type="0" route="0" color="0.000000,0.000000,1.000000" depart="268" />
    <vehicle id="veh_60" type="2" route="4" color="1.000000,1.000000,1.000000" depart="272" />
    <vehicle id="veh_61" type="3" route="4" color="0.000000,0.000000,1.000000" depart="274" />
    <vehicle id="veh_62" type="0" route="7" color="1.000000,0.000000,1.000000" depart="278" />
    <vehicle id="veh_63" type="2" route="5" color="0.000000,1.000000,1.000000" depart="281" />
    <vehicle id="veh_64" type="2" route="2" color="1.000000,0.000000,0.000000" depart="282" />
    <vehicle id="veh_65" type="3" route="1" color="1.000000,0.000000,0.000000" depart="285" />
    <vehicle id="veh_66" type="1" route="10" color="1.000000,1.000000,1.000000" depart="287" />
    <vehicle id="veh_67" type="2" route="3" color="1.000000,1.000000,0.000000" depart="290" />
    <vehicle id="veh_68" type="1" route="8" color="1.000000,0.000000,0.000000" depart="291" />
    <vehicle id="veh_69" type="2" route="6" color="0.000000,1.000000,1.000000" depart="295" />
    <vehicle id="veh_70" type="3" route="10" color="0.000000,1.000000,0.000000" depart="295" />
    <vehicle id="veh_71" type="1" route="3" color="0.000000,0.000000,1.000000" depart="303" />
    <vehicle id="veh_72" type="1" route="3" color="1.000000,1.000000,1.000000" depart="328" />
    <vehicle id="veh_73" type="1" route="3" color="1.000000,1.000000,1.000000" depart="334" />
    <vehicle id="veh_74" type="1" route="9" color="1.000000,1.000000,0.000000" depart="336" />
    <vehicle id="veh_75" type="0" route="6" color="1.000000,0.000000,0.000000" depart="341" />
    <vehicle id="veh_76" type="0" route="3" color="1.000000,0.000000,1.000000" depart="348" />
    <vehicle id="veh_77" type="3" route="7" color="1.000000,1.000000,0.000000" depart="355" />
    <vehicle id="veh_78" type="1" route="0" color="0.000000,1.000000,1.000000" depart="360" />
    <vehicle id="veh_79" type="0" route="9" color="1.000000,0.000000,1.000000" depart="361" />
    <vehicle id="veh_80" type="1" route="7" color="0.000000,0.000000,1.000000" depart="364" />
    <vehicle id="veh_81" type="1" route="2" color="1.000000,0.000000,0.000000" depart="365" />
    <vehicle id="veh_82" type="0" route="8" color="1.000000,0.000000,1.000000" depart="366" />
    <vehicle id="veh_83" type="3" route="2" color="1.000000,0.000000,0.000000" depart="370" />
    <vehicle id="veh_84" type="0" route="3" color="0.000000,1.000000,1.000000" depart="375" />
    <vehicle id="veh_85" type="2" route="4" color="1.000000,0.000000,0.000000" depart="378" />
    <vehicle id="veh_86" type="0" route="11" color="0.000000,1.000000,0.000000" depart="400" />
    <vehicle id="veh_87" type="0" route="8" color="0.000000,1.000000,1.000000" depart="401" />
    <vehicle id="veh_88" type="3" route="8" color="1.000000,0.000000,0.000000" depart="418" />
    <vehicle id="veh_89" type="1" route="10" color="1.000000,0.000000,0.000000" depart="419" />
    <vehicle id="veh_90" type="2" route="2" color="1.000000,0.000000,1.000000" depart="431" />
    <vehicle id="veh_91" type="3" route="4" color="0.000000,0.000000,1.000000" depart="435" />
    <vehicle id="veh_92" type="1" route="5" color="0.000000,1.000000,0.000000" depart="437" />
    <vehicle id="veh_93" type="1" route="2" color="1.000000,0.000000,1.000000" depart="438" />
    <vehicle id="veh_94" type="1" route="8" color="0.000000,0.000000,1.000000" depart="454" />
    <vehicle id="veh_95" type="0" route="1" color="0.000000,0.000000,1.000000" depart="455" />
    <vehicle id="veh_96" type="2" route="5" color="1.000000,0.000000,1.000000" depart="457" />
    <vehicle id="veh_97" type="0" route="1" color="0.000000,1.000000,0.000000" depart="475" />
    <vehicle id="veh_98" type="3" route="4" color="1.000000,0.000000,0.000000" depart="479" />
    <vehicle id="veh_99" type="1" route="4" color="1.000000,1.000000,0.000000" depart="481" />
    <vehicle id="veh_100" type="3" route="4" color="0.000000,1.000000,1.000000" depart="485" />
    <vehicle id="veh_101" type="2" route="4" color="1.000000,1.000000,0.000000" depart="493" />
    <vehicle id="veh_102" type="1" route="7" color="1.000000,1.000000,1.000000" depart="503" />
    <vehicle id="veh_103" type="2" route="9" color="0.000000,0.000000,1.000000" depart="504" />
    <vehicle id="veh_104" type="0" route="4" color="1.000000,1.000000,0.000000" depart="506" />
    <vehicle id="veh_105" type="0" route="6" color="0.000000,1.000000,1.000000" depart="510" />
    <vehicle id="veh_106" type="2" route="8" color="1.000000,0.000000,1.000000" depart="512" />
    <vehicle id="veh_107" type="0" route="7" color="0.000000,0.000000,1.000000" depart="519" />
    <vehicle id="veh_108" type="1" route="1" color="1.000000,0.000000,0.000000" depart="520" />
    <vehicle id="veh_109" type="2" route="7" color="1.000000,1.000000,1.000000" depart="521" />
    <vehicle id="veh_110" type="1" route="3" color="1.000000,0.000000,0.000000" depart="528" />
    <vehicle id="veh_111" type="0" route="10" color="0.000000,1.000000,1.000000" depart="528" />
    <vehicle id="veh_112" type="1" route="10" color="1.000000,0.000000,0.000000" depart="545" />
    <vehicle id="veh_113" type="0" route="7" color="0.000000,1.000000,0.000000" depart="556" />
    <vehicle id="veh_114" type="1" route="9" color="1.000000,0.000000,1.000000" depart="563" />
    <vehicle id="veh_115" type="1" route="9" color="1.000000,1.000000,0.000000" depart="565" />
    <vehicle id="veh_116" type="1" route="6" color="1.000000,1.000000,0.000000" depart="576" />
    <vehicle id="veh_117" type="3" route="8" color="0.000000,1.000000,0.000000" depart="578" />
    <vehicle id="veh_118" type="3" route="2" color="1.000000,0.000000,0.000000" depart="582" />
    <vehicle id="veh_119" type="0" route="11" color="0.000000,1.000000,0.000000" depart="585" />
    <vehicle id="veh_120" type="1" route="11" color="0.000000,0.000000,1.000000" depart="598" />
    <vehicle id="veh_121" type="0" route="11" color="1.000000,1.000000,0.000000" depart="602" />
    <vehicle id="veh_122" type="1" route="0" color="1.000000,0.000000,0.000000" depart="607" />
    <vehicle id="veh_123" type="3" route="7" color="0.000000,0.000000,1.000000" depart="607" />
    <vehicle id="veh_124" type="0" route="7" color="0.000000,1.000000,0.000000" depart="610" />
    <vehicle id="veh_125" type="1" route="6" color="0.000000,1.000000,0.000000" depart="615" />
    <vehicle id="veh_126" type="3" route="3" color="1.000000,1.000000,1.000000" depart="616" />
    <vehicle id="veh_127" type="3" route="10" color="1.000000,0.000000,1.000000" depart="619" />
    <vehicle id="veh_128" type="2" route="10" color="1.000000,1.000000,1.000000" depart="625" />
    <vehicle id="veh_129" type="1" route="8" color="0.000000,1.000000,0.000000" depart="630" />
    <vehicle id="veh_130" type="0" route="5" color="1.000000,1.000000,1.000000" depart="631" />
    <vehicle id="veh_131" type="0" route="7" color="0.000000,0.000000,1.000000" depart="642" />
    <vehicle id="veh_132" type="3" route="9" color="1.000000,0.000000,0.000000" depart="642" />
    <vehicle id="veh_133" type="0" route="2" color="1.000000,0.000000,1.000000" depart="668" />
    <vehicle id="veh_134" type="2" route="2" color="0.000000,1.000000,1.000000" depart="670" />
    <vehicle id="veh_135" type="0" route="1" color="0.000000,1.000000,1.000000" depart="680" />
    <vehicle id="veh_136" type="0" route="8" color="1.000000,0.000000,0.000000" depart="681" />
    <vehicle id="veh_137" type="1" route="8" color="1.000000,0.000000,0.000000" depart="684" />
    <vehicle id="veh_138" type="2" route="11" color="1.000000,0.000000,0.000000" depart="688" />
    <vehicle id="veh_139" type="0" route="6" color="1.000000,0.000000,1.000000" depart="690" />
    <vehicle id="veh_140" type="1" route="5" color="1.000000,0.000000,1.000000" depart="691" />
    <vehicle id="veh_141" type="3" route="7" color="0.000000,1.000000,0.000000" depart="694" />
    <vehicle id="veh_142" type="2" route="10" color="1.000000,1.000000,0.000000" depart="694" />
    <vehicle id="veh_143" type="0" route="7" color="1.000000,1.000000,0.000000" depart="696" />
    <vehicle id="veh_144" type="2" route="0" color="1.000000,0.000000,0.000000" depart="709" />
    <vehicle id="veh_145" type="0" route="4" color="1.000000,0.000000,1.000000" depart="710" />
    <vehicle id="veh_146" type="2" route="1" color="1.000000,0.000000,0.000000" depart="714" />
    <vehicle id="veh_147" type="3" route="11" color="1.000000,0.000000,1.000000" depart="723" />
    <vehicle id="veh_148" type="0" route="4" color="0.000000,0.000000,1.000000" depart="726" />
    <vehicle id="veh_149" type="0" route="2" color="0.000000,0.000000,1.000000" depart="730" />
    <vehicle id="veh_150" type="3" route="5" color="1.000000,0.000000,1.000000" depart="732" />
    <vehicle id="veh_151" type="2" route="1" color="1.000000,0.000000,0.000000" depart="737" />
    <vehicle id="veh_152" type="3" route="6" color="1.000000,1.000000,1.000000" depart="739" />
    <vehicle id="veh_153" type="2" route="11" color="1.000000,0.000000,0.000000" depart="740" />
    <vehicle id="veh_154" type="3" route="6" color="1.000000,0.000000,0.000000" depart="741" />
    <vehicle id="veh_155" type="1" route="0" color="1.000000,0.000000,1.000000" depart="743" />
    <vehicle id="veh_156" type="0" route="4" color="0.000000,1.000000,1.000000" depart="755" />
    <vehicle id="veh_157" type="1" route="4" color="0.000000,0.000000,1.000000" depart="760" />
    <vehicle id="veh_158" type="1" route="1" color="1.000000,0.000000,0.000000" depart="774" />
    <vehicle id="veh_159" type="2" route="6" color="0.000000,0.000000,1.000000" depart="788" />
    <vehicle id="veh_160" type="1" route="7" color="1.000000,0.000000,0.000000" depart="791" />
    <vehicle id="veh_161" type="0" route="11" color="1.000000,0.000000,1.000000" depart="791" />
    <vehicle id="veh_162" type="2" route="2" color="1.000000,0.000000,0.000000" depart="792" />
    <vehicle id="veh_163" type="1" route="6" color="1.000000,0.000000,1.000000" depart="797" />
    <vehicle id="veh_164" type="1" route="3" color="1.000000,1.000000,1.000000" depart="809" />
    <vehicle id="veh_165" type="3" route="9" color="1.000000,1.000000,1.000000" depart="810" />
    <vehicle id="veh_166" type="0" route="7" color="1.000000,0.000000,1.000000" depart="817" />
    <vehicle id="veh_167" type="2" route="6" color="1.000000,0.000000,1.000000" depart="819" />
    <vehicle id="veh_168" type="1" route="0" color="1.000000,1.000000,0.000000" depart="822" />
    <vehicle id="veh_169" type="1" route="9" color="1.000000,0.000000,0.000000" depart="829" />
    <vehicle id="veh_170" type="2" route="11" color="0.000000,0.000000,1.000000" depart="830" />
    <vehicle id="veh_171" type="1" route="10" color="1.000000,0.000000,0.000000" depart="834" />
    <vehicle id="veh_172" type="3" route="7" color="0.000000,1.000000,0.000000" depart="849" />
    <vehicle id="veh_173" type="3" route="4" color="0.000000,1.000000,0.000000" depart="856" />
    <vehicle id="veh_174" type="1" route="2" color="0.000000,1.000000,0.000000" depart="864" />
    <vehicle id="veh_175" type="0" route="3" color="0.000000,1.000000,0.000000" depart="867" />
    <vehicle id="veh_176" type="1" route="5" color="0.000000,1.000000,1.000000" depart="869" />
    <vehicle id="veh_177" type="3" route="3" color="1.000000,1.000000,0.000000" depart="873" />
    <vehicle id="veh_178" type="2" route="5" color="0.000000,0.000000,1.000000" depart="875" />
    <vehicle id="veh_179" type="1" route="5" color="1.000000,0.000000,0.000000" depart="885" />
    <vehicle id="veh_180" type="2" route="2" color="0.000000,1.000000,1.000000" depart="887" />
    <vehicle id="veh_181" type="2" route="7" color="0.000000,1.000000,1.000000" depart="892" />
    <vehicle id="veh_182" type="1" route="3" color="1.000000,1.000000,1.000000" depart="906" />
    <vehicle id="veh_183" type="0" route="11" color="1.000000,1.000000,1.000000" depart="906" />
    <vehicle id="veh_184" type="3" route="5" color="1.000000,0.000000,1.000000" depart="927" />
    <vehicle id="veh_185" type="3" route="0" color="1.000000,0.000000,0.000000" depart="940" />
    <vehicle id="veh_186" type="3" route="7" color="1.000000,0.000000,0.000000" depart="948" />
    <vehicle id="veh_187" type="1" route="7" color="1.000000,0.000000,0.000000" depart="953" />
    <vehicle id="veh_188" type="1" route="9" color="1.000000,1.000000,1.000000" depart="967" />
    <vehicle id="veh_189" type="1" route="11" color="1.000000,1.000000,1.000000" depart="971" />
    <vehicle id="veh_190" type="1" route="0" color="1.000000,1.000000,1.000000" depart="974" />
    <vehicle id="veh_191" type="1" route="6" color="1.000000,0.000000,0.000000" depart="984" />
    <vehicle id="veh_192" type="2" route="0" color="0.000000,0.000000,1.000000" depart="1000" />
    <vehicle id="veh_193" type="3" route="7" color="0.000000,1.000000,1.000000" depart="1000" />
    <vehicle id="veh_194" type="3" route="11" color="1.000000,1.000000,1.000000" depart="1000" />
    <vehicle id="veh_195" type="2" route="5" color="1.000000,1.000000,0.000000" depart="1002" />
    <vehicle id="veh_196" type="2" route="5" color="0.000000,1.000000,1.000000" depart="1019" />
    <vehicle id="veh_197" type="3" route="1" color="1.000000,0.000000,0.000000" depart="1025" />
    <vehicle id="veh_198" type="0" route="1" color="1.000000,0.000000,0.000000" depart="1031" />
    <vehicle id="veh_199" type="2" route="4" color="1.000000,0.000000,0.000000" depart="1031" />
    <vehicle id="veh_200" type="1" route="9" color="1.000000,1.000000,0.000000" depart="1037" />
    <vehicle id="veh_201" type="1" route="11" color="1.000000,0.000000,1.000000" depart="1041" />
    <vehicle id="veh_202" type="1" route="2" color="1.000000,0.000000,0.000000" depart="1049" />
    <vehicle id="veh_203" type="0" route="11" color="0.000000,1.000000,0.000000" depart="1049" />
    <vehicle id="veh_204" type="1" route="3" color="0.000000,1.000000,0.000000" depart="1060" />
    <vehicle id="veh_205" type="3" route="9" color="1.000000,0.000000,0.000000" depart="1065" />
    <vehicle id="veh_206" type="3" route="0" color="1.000000,1.000000,1.000000" depart="1070" />
    <vehicle id="veh_207" type="1" route="3" color="0.000000,1.000000,0.000000" depart="1074" />
    <vehicle id="veh_208" type="3" route="5" color="0.000000,0.000000,1.000000" depart="1085" />
    <vehicle id="veh_209" type="0" route="11" color="0.000000,0.000000,1.000000" depart="1091" />
    <vehicle id="veh_210" type="0" route="3" color="0.000000,1.000000,0.000000" depart="1099" />
    <vehicle id="veh_211" type="2" route="3" color="0.000000,1.000000,1.000000" depart="1102" />
    <vehicle id="veh_212" type="0" route="11" color="1.000000,0.000000,1.000000" depart="1103" />
    <vehicle id="veh_213" type="3" route="4" color="0.000000,1.000000,0.000000" depart="1108" />
    <vehicle id="veh_214" type="1" route="4" color="1.000000,1.000000,0.000000" depart="1109" />
    <vehicle id="veh_215" type="1" route="7" color="0.000000,1.000000,0.000000" depart="1110" />
    <vehicle id="veh_216" type="2" route="3" color="1.000000,1.000000,0.000000" depart="1125" />
    <vehicle id="veh_217" type="0" route="0" color="1.000000,1.000000,0.000000" depart="1126" />
    <vehicle id="veh_218" type="3" route="2" color="1.000000,0.000000,0.000000" depart="1128" />
    <vehicle id="veh_219" type="3" route="3" color="1.000000,0.000000,0.000000" depart="1129" />
    <vehicle id="veh_220" type="0" route="6" color="1.000000,0.000000,0.000000" depart="1129" />
    <vehicle id="veh_221" type="0" route="2" color="0.000000,1.000000,1.000000" depart="1145" />
    <vehicle id="veh_222" type="1" route="4" color="1.000000,1.000000,1.000000" depart="1148" />
    <vehicle id="veh_223" type="0" route="9" color="0.000000,1.000000,0.000000" depart="1148" />
    <vehicle id="veh_224" type="2" route="0" color="1.000000,0.000000,0.000000" depart="1154" />
    <vehicle id="veh_225" type="2" route="4" color="1.000000,1.000000,0.000000" depart="1159" />
    <vehicle id="veh_226" type="1" route="2" color="1.000000,0.000000,1.000000" depart="1162" />
    <vehicle id="veh_227" type="2" route="2" color="0.000000,1.000000,1.000000" depart="1163" />
    <vehicle id="veh_228" type="1" route="7" color="1.000000,0.000000,1.000000" depart="1173" />
    <vehicle id="veh_229" type="3" route="6" color="1.000000,0.000000,0.000000" depart="1175" />
    <vehicle id="veh_230" type="1" route="3" color="1.000000,0.000000,1.000000" depart="1177" />
    <vehicle id="veh_231" type="2" route="9" color="1.000000,0.000000,0.000000" depart="1181" />
    <vehicle id="veh_232" type="2" route="10" color="1.000000,1.000000,0.000000" depart="1182" />
    <vehicle id="veh_233" type="2" route="6" color="1.000000,0.000000,0.000000" depart="1190" />
    <vehicle id="veh_234" type="1" route="4" color="1.000000,1.000000,0.000000" depart="1194" />
    <vehicle id="veh_235" type="1" route="5" color="1.000000,0.000000,1.000000" depart="1197" />
    <vehicle id="veh_236" type="1" route="9" color="0.000000,1.000000,1.000000" depart="1197" />
    <vehicle id="veh_237" type="0" route="3" color="1.000000,1.000000,0.000000" depart="1203" />
    <vehicle id="veh_238" type="1" route="3" color="1.000000,1.000000,1.000000" depart="1204" />
    <vehicle id="veh_239" type="3" route="2" color="1.000000,0.000000,1.000000" depart="1210" />
    <vehicle id="veh_240" type="2" route="10" color="0.000000,1.000000,1.000000" depart="1210" />
    <vehicle id="veh_241" type="3" route="10" color="0.000000,1.000000,1.000000" depart="1211" />
    <vehicle id="veh_242" type="1" route="0" color="0.000000,0.000000,1.000000" depart="1219" />
    <vehicle id="veh_243" type="0" route="10" color="0.000000,0.000000,1.000000" depart="1228" />
    <vehicle id="veh_244" type="0" route="1" color="1.000000,0.000000,1.000000" depart="1235" />
    <vehicle id="veh_245" type="3" route="4" color="1.000000,0.000000,1.000000" depart="1240" />
    <vehicle id="veh_246" type="0" route="3" color="1.000000,0.000000,1.000000" depart="1241" />
    <vehicle id="veh_247" type="1" route="4" color="1.000000,1.000000,0.000000" depart="1249" />
    <vehicle id="veh_248" type="2" route="1" color="1.000000,0.000000,0.000000" depart="1268" />
    <vehicle id="veh_249" type="1" route="2" color="1.000000,1.000000,1.000000" depart="1277" />
    <vehicle id="veh_250" type="3" route="2" color="1.000000,0.000000,0.000000" depart="1280" />
    <vehicle id="veh_251" type="1" route="9" color="1.000000,1.000000,1.000000" depart="1281" />
    <vehicle id="veh_252" type="2" route="2" color="0.000000,1.000000,0.000000" depart="1284" />
    <vehicle id="veh_253" type="1" route="5" color="0.000000,0.000000,1.000000" depart="1285" />
    <vehicle id="veh_254" type="2" route="2" color="0.000000,1.000000,1.000000" depart="1286" />
    <vehicle id="veh_255" type="2" route="8" color="0.000000,1.000000,1.000000" depart="1289" />
    <vehicle id="veh_256" type="0" route="10" color="1.000000,1.000000,1.000000" depart="1290" />
    <vehicle id="veh_257" type="2" route="7" color="0.000000,0.000000,1.000000" depart="1299" />
    <vehicle id="veh_258" type="3" route="2" color="0.000000,0.000000,1.000000" depart="1303" />
    <vehicle id="veh_259" type="0" route="7" color="0.000000,1.000000,1.000000" depart="1314" />
    <vehicle id="veh_260" type="3" route="4" color="1.000000,0.000000,1.000000" depart="1346" />
    <vehicle id="veh_261" type="3" route="8" color="1.000000,1.000000,1.000000" depart="1349" />
    <vehicle id="veh_262" type="2" route="3" color="1.000000,0.000000,1.000000" depart="1358" />
    <vehicle id="veh_263" type="3" route="10" color="0.000000,1.000000,1.000000" depart="1359" />
    <vehicle id="veh_264" type="3" route="1" color="0.000000,0.000000,1.000000" depart="1364" />
    <vehicle id="veh_265" type="2" route="6" color="1.000000,0.000000,1.000000" depart="1365" />
    <vehicle id="veh_266" type="0" route="9" color="1.000000,0.000000,1.000000" depart="1368" />
    <vehicle id="veh_267" type="0" route="6" color="0.000000,1.000000,1.000000" depart="1379" />
    <vehicle id="veh_268" type="3" route="4" color="1.000000,1.000000,1.000000" depart="1384" />
    <vehicle id="veh_269" type="3" route="5" color="1.000000,1.000000,1.000000" depart="1386" />
    <vehicle id="veh_270" type="0" route="11" color="0.000000,0.000000,1.000000" depart="1400" />
    <vehicle id="veh_271" type="2" route="3" color="0.000000,0.000000,1.000000" depart="1406" />
    <vehicle id="veh_272" type="1" route="10" color="1.000000,1.000000,0.000000" depart="1421" />
    <vehicle id="veh_273" type="3" route="4" color="1.000000,0.000000,0.000000" depart="1424" />
    <vehicle id="veh_274" type="0" route="2" color="1.000000,1.000000,1.000000" depart="1442" />
    <vehicle id="veh_275" type="0" route="6" color="1.000000,0.000000,1.000000" depart="1442" />
    <vehicle id="veh_276" type="0" route="6" color="1.000000,0.000000,0.000000" depart="1449" />
    <vehicle id="veh_277" type="3" route="3" color="1.000000,0.000000,1.000000" depart="1450" />
    <vehicle id="veh_278" type="1" route="3" color="0.000000,1.000000,0.000000" depart="1459" />
    <vehicle id="veh_279" type="2" route="1" color="0.000000,0.000000,1.000000" depart="1463" />
    <vehicle id="veh_280" type="1" route="10" color="1.000000,1.000000,0.000000" depart="1472" />
    <vehicle id="veh_281" type="2" route="3" color="1.000000,0.000000,1.000000" depart="1473" />
    <vehicle id="veh_282" type="0" route="7" color="1.000000,0.000000,0.000000" depart="1481" />
    <vehicle id="veh_283" type="0" route="8" color="0.000000,1.000000,0.000000" depart="1489" />
    <vehicle id="veh_284" type="2" route="4" color="0.000000,1.000000,0.000000" depart="1493" />
    <vehicle id="veh_285" type="1" route="7" color="0.000000,1.000000,0.000000" depart="1494" />
    <vehicle id="veh_286" type="2" route="11" color="1.000000,1.000000,1.000000" depart="1498" />
    <vehicle id="veh_287" type="3" route="11" color="0.000000,0.000000,1.000000" depart="1503" />
    <vehicle id="veh_288" type="3" route="4" color="0.000000,0.000000,1.000000" depart="1504" />
    <vehicle id="veh_289" type="0" route="1" color="1.000000,1.000000,1.000000" depart="1509" />
    <vehicle id="veh_290" type="1" route="8" color="1.000000,0.000000,1.000000" depart="1511" />
    <vehicle id="veh_291" type="0" route="11" color="0.000000,1.000000,1.000000" depart="1522" />
    <vehicle id="veh_292" type="2" route="1" color="0.000000,0.000000,1.000000" depart="1540" />
    <vehicle id="veh_293" type="0" route="9" color="1.000000,0.000000,0.000000" depart="1541" />
    <vehicle id="veh_294" type="0" route="11" color="0.000000,1.000000,0.000000" depart="1544" />
    <vehicle id="veh_295" type="2" route="4" color="1.000000,1.000000,0.000000" depart="1550" />
    <vehicle id="veh_296" type="3" route="10" color="0.000000,1.000000,0.000000" depart="1555" />
    <vehicle id="veh_297" type="2" route="11" color="0.000000,1.000000,0.000000" depart="1567" />
    <vehicle id="veh_298" type="3" route="8" color="0.000000,1.000000,0.000000" depart="1573" />
    <vehicle id="veh_299" type="3" route="2" color="0.000000,1.000000,0.000000" depart="1580" />
    <vehicle id="veh_300" type="2" route="3" color="1.000000,1.000000,1.000000" depart="1584" />