
			<routes>
				<vType id="0" accel="2" decel="4.5" sigma="0.5" length="5" minGap="2.5" maxSpeed="14" guiShape="passenger"/>
				<vType id="1" accel="2" decel="4.5" sigma="0.5" length="3" minGap="2.5" maxSpeed="14" guiShape="passenger"/>
				<vType id="2" accel="2" decel="4.5" sigma="0.5" length="4" minGap="2.5" maxSpeed="14" guiShape="passenger"/>
				<vType id="3" accel="2" decel="4.5" sigma="0.5" length="10" minGap="3" maxSpeed="14" guiShape="bus"/>

				<route id="0" edges="west_right north_up" />
				<route id="1" edges="west_right east_right" />
				<route id="2" edges="west_right south_down" />

				<route id="3" edges="north_down east_right" />
				<route id="4" edges="north_down south_down" />
				<route id="5" edges="north_down west_left" />
				
				<route id="6" edges="east_left south_down" />
				<route id="7" edges="east_left west_left" />
				<route id="8" edges="east_left north_up" />
				
				<route id="9" edges="south_up west_left" />
				<route id="10" edges="south_up north_up" />
				<route id="11" edges="south_up east_right" />

			
    <vehicle id="veh_0" type="2" route="4" color="1.000000,1.000000,0.000000" depart="4" />
    <vehicle id="veh_1" type="0" route="3" color="1.000000,0.000000,0.000000" depart="7" />
    <vehicle id="veh_2" type="3" route="11" color="1.000000,0.000000,1.000000" depart="12" />
    <vehicle id="veh_3" type="3" route="11" color="1.000000,0.000000,0.000000" depart="15" />
    <vehicle id="veh_4" type="2" route="5" color="1.000000,0.000000,0.000000" depart="18" />
    <vehicle id="veh_5" type="1" route="5" color="1.000000,1.000000,1.000000" depart="22" />
    <vehicle id="veh_6" type="0" route="7" color="0.000000,1.000000,1.000000" depart="25" />
    <vehicle id="veh_7" type="1" route="4" color="1.000000,1.000000,0.000000" depart="28" />
    <vehicle id="veh_8" type="3" route="10" color="1.000000,0.000000,0.000000" depart="29" />
    <vehicle id="veh_9" type="3" route="4" color="1.000000,0.000000,0.000000" depart="30" />
    <vehicle id="veh_10" type="3" route="10" color="1.000000,0.000000,0.000000" depart="32" />
    <vehicle id="veh_11" type="3" route="8" color="0.000000,0.000000,1.000000" depart="34" />
    <vehicle id="veh_12" type="1" route="4" color="1.000000,1.000000,0.000000" depart="36" />
    <vehicle id="veh_13" type="1" route="6" color="0.000000,1.000000,1.000000" depart="36" />
    <vehicle id="veh_14" type="2" route="6" color="1.000000,0.000000,0.000000" depart="38" />
    <vehicle id="veh_15" type="1" route="0" color="0.000000,1.000000,0.000000" depart="40" />
    <vehicle id="veh_16" type="1" route="4" color="1.000000,0.000000,0.000000" depart="40" />
    <vehicle id="veh_17" type="2" route="11" color="1.000000,0.000000,0.000000" depart="43" />
    <vehicle id="veh_18" type="0" route="4" color="1.000000,0.000000,1.000000" depart="44" />
    <vehicle id="veh_19" type="0" route="8" color="1.000000,1.000000,0.000000" depart="44" />
    <vehicle id="veh_20" type="2" route="2" color="1.000000,0.000000,0.000000" depart="46" />
    <vehicle id="veh_21" type="2" route="10" color="1.000000,0.000000,0.000000" depart="49" />
    <vehicle id="veh_22" type="2" route="6" color="1.000000,0.000000,0.000000" depart="51" />
    <vehicle id="veh_23" type="1" route="0" color="1.000000,1.000000,1.000000" depart="55" />
    <vehicle id="veh_24" type="3" route="10" color="1.000000,0.000000,1.000000" depart="55" />
    <vehicle id="veh_25" type="2" route="3" color="0.000000,1.000000,1.000000" depart="56" />
    <vehicle id="veh_26" type="0" route="2" color="0.000000,1.000000,1.000000" depart="58" />
    <vehicle id="veh_27" type="2" route="9" color="1.000000,1.000000,1.000000" depart="64" />
    <vehicle id="veh_28" type="0" route="5" color="0.000000,1.000000,0.000000" depart="67" />
    <vehicle id="veh_29" type="3" route="0" color="1.000000,1.000000,1.000000" depart="70" />
    <vehicle id="veh_30" type="0" route="11" color="0.000000,1.000000,1.000000" depart="70" />
    <vehicle id="veh_31" type="2" route="1" color="1.000000,0.000000,1.000000" depart="72" />
    <vehicle id="veh_32" type="1" route="8" color="1.000000,0.000000,1.000000" depart="76" />
    <vehicle id="veh_33" type="2" route="8" color="0.000000,1.000000,1.000000" depart="79" />
    <vehicle id="veh_34" type="0" route="5" color="1.000000,0.000000,0.000000" depart="82" />
    <vehicle id="veh_35" type="0" route="6" color="0.000000,0.000000,1.000000" depart="84" />
    <vehicle id="veh_36" type="0" route="8" color="1.000000,0.000000,1.000000" depart="85" />
    <vehicle id="veh_37" type="1" route="5" color="1.000000,1.000000,0.000000" depart="88" />
    <vehicle id="veh_38" type="1" route="7" color="1.000000,0.000000,0.000000" depart="89" />
    <vehicle id="veh_39" type="1" route="4" color="1.000000,0.000000,1.000000" depart="98" />
    <vehicle id="veh_40" type="2" route="4" color="0.000000,1.000000,1.000000" depart="100" />
    <vehicle id="veh_41" type="2" route="5" color="1.000000,0.000000,0.000000" depart="103" />
    <vehicle id="veh_42" type="1" route="10" color="0.000000,1.000000,1.000000" depart="104" />
    <vehicle id="veh_43" type="2" route="6" color="1.000000,1.000000,0.000000" depart="105" />
    <vehicle id="veh_44" type="2" route="10" color="1.000000,1.000000,1.000000" depart="106" />
    <vehicle id="veh_45" type="2" route="9" color="1.000000,1.000000,1.000000" depart="109" />
    <vehicle id="veh_46" type="3" route="1" color="1.000000,0.000000,0.000000" depart="110" />
    <vehicle id="veh_47" type="1" route="0" color="1.000000,0.000000,1.000000" depart="114" />
    <vehicle id="veh_48" type="3" route="2" color="1.000000,0.000000,0.000000" depart="116" />
    <vehicle id="veh_49" type="3" route="5" color="1.000000,0.000000,0.000000" depart="119" />
    <vehicle id="veh_50" type="1" route="10" color="0.000000,1.000000,0.000000" depart="119" />
    <vehicle id="veh_51" type="0" route="3" color="1.000000,1.000000,0.000000" depart="122" />
    <vehicle id="veh_52" type="0" route="3" color="1.000000,0.000000,1.000000" depart="125" />
    <vehicle id="veh_53" type="1" route="3" color="1.000000,0.000000,0.000000" depart="126" />
    <vehicle id="veh_54" type="0" route="11" color="1.000000,0.000000,0.000000" depart="127" />
    <vehicle id="veh_55" type="1" route="5" color="1.000000,0.000000,0.000000" depart="128" />
    <vehicle id="veh_56" type="3" route="10" color="1.000000,0.000000,1.000000" depart="132" />
    <vehicle id="veh_57" type="0" route="9" color="1.000000,1.000000,0.000000" depart="137" />
    <vehicle id="veh_58" type="1" route="11" color="1.000000,1.000000,1.000000" depart="139" />
    <vehicle id="veh_59" type="1" route="10" color="1.000000,0.000000,0.000000" depart="140" />
    <vehicle id="veh_60" type="1" route="10" color="1.000000,1.000000,0.000000" depart="141" />
    <vehicle id="veh_61" type="0" route="0" color="1.000000,1.000000,1.000000" depart="152" />
    <vehicle id="veh_62" type="2" route="11" color="1.000000,1.000000,1.000000" depart="156" />
    <vehicle id="veh_63" type="1" route="3" color="0.000000,1.000000,1.000000" depart="158" />
    <vehicle id="veh_64" type="1" route="0" color="0.000000,1.000000,1.000000" depart="161" />
    <vehicle id="veh_65" type="0" route="4" color="0.000000,0.000000,1.000000" depart="162" />
    <vehicle id="veh_66" type="2" route="3" color="0.000000,0.000000,1.000000" depart="165" />
    <vehicle id="veh_67" type="0" route="2" color="1.000000,1.000000,0.000000" depart="170" />
    <vehicle id="veh_68" type="3" route="6" color="0.000000,0.000000,1.000000" depart="174" />
    <vehicle id="veh_69" type="3" route="5" color="1.000000,1.000000,0.000000" depart="175" />
    <vehicle id="veh_70" type="1" route="3" color="0.000000,1.000000,0.000000" depart="177" />
    <vehicle id="veh_71" type="1" route="2" color="1.000000,0.000000,1.000000" depart="179" />
    <vehicle id="veh_72" type="0" route="10" color="1.000000,0.000000,0.000000" depart="183" />
    <vehicle id="veh_73" type="2" route="0" color="1.000000,1.000000,0.000000" depart="184" />
    <vehicle id="veh_74" type="1" route="6" color="1.000000,0.000000,0.000000" depart="184" />
    <vehicle id="veh_75" type="2" route="11" color="1.000000,1.000000,0.000000" depart="185" />
    <vehicle id="veh_76" type="1" route="7" color="1.000000,0.000000,0.000000" depart="186" />
    <vehicle id="veh_77" type="0" route="3" color="0.000000,1.000000,1.000000" depart="191" />
    <vehicle id="veh_78" type="0" route="9" color="1.000000,0.000000,1.000000" depart="194" />
    <vehicle id="veh_79" type="1" route="11" color="0.000000,1.000000,0.000000" depart="200" />
    <vehicle id="veh_80" type="3" route="6" color="0.000000,1.000000,1.000000" depart="202" />
    <vehicle id="veh_81" type="0" route="4" color="1.000000,0.000000,0.000000" depart="204" />
    <vehicle id="veh_82" type="0" route="10" color="1.000000,1.000000,1.000000" depart="205" />
    <vehicle id="veh_83" type="1" route="0" color="1.000000,1.000000,1.000000" depart="206" />
    <vehicle id="veh_84" type="2" route="10" color="1.000000,0.000000,0.000000" depart="206" />
    <vehicle id="veh_85" type="0" route="3" color="1.000000,1.000000,1.000000" depart="207" />
    <vehicle id="veh_86" type="3" route="8" color="0.000000,0.000000,1.000000" depart="211" />
    <vehicle id="veh_87" type="3" route="10" color="1.000000,0.000000,0.000000" depart="219" />
    <vehicle id="veh_88" type="0" route="7" color="1.000000,0.000000,1.000000" depart="220" />
    <vehicle id="veh_89" type="0" route="11" color="0.000000,1.000000,1.000000" depart="220" />
    <vehicle id="veh_90" type="2" route="2" color="0.000000,0.000000,1.000000" depart="221" />
    <vehicle id="veh_91" type="1" route="2" color="0.000000,1.000000,1.000000" depart="222" />
    <vehicle id="veh_92" type="1" route="10" color="0.000000,1.000000,0.000000" depart="222" />
    <vehicle id="veh_93" type="2" route="6" color="1.000000,0.000000,0.000000" depart="226" />
    <vehicle id="veh_94" type="0" route="7" color="0.000000,1.000000,1.000000" depart="228" />
    <vehicle id="veh_95" type="0" route="7" color="0.000000,1.000000,0.000000" depart="234" />
    <vehicle id="veh_96" type="3" route="3" color="1.000000,0.000000,0.000000" depart="235" />
    <vehicle id="veh_97" type="2" route="5" color="0.000000,0.000000,1.000000" depart="242" />
    <vehicle id="veh_98" type="2" route="4" color="1.000000,1.000000,0.000000" depart="244" />
    <vehicle id="veh_99" type="1" route="10" color="0.000000,0.000000,1.000000" depart="245" />
    <vehicle id="veh_100" type="3" route="0" color="1.000000,1.000000,1.000000" depart="246" />
    <vehicle id="veh_101" type="0" route="1" color="1.000000,1.000000,1.000000" depart="247" />
    <vehicle id="veh_102" type="0" route="4" color="1.000000,1.000000,1.000000" depart="249" />
    <vehicle id="veh_103" type="0" route="11" color="0.000000,1.000000,0.000000" depart="251" />
    <vehicle id="veh_104" type="1" route="9" color="1.000000,1.000000,1.000000" depart="252" />
    <vehicle id="veh_105" type="1" route="9" color="1.000000,1.000000,0.000000" depart="253" />
    <vehicle id="veh_106" type="0" route="3" color="0.000000,1.000000,0.000000" depart="255" />
    <vehicle id="veh_107" type="0" route="0" color="0.000000,1.000000,0.000000" depart="256" />
    <vehicle id="veh_108" type="3" route="9" color="1.000000,0.000000,0.000000" depart="257" />
    <vehicle id="veh_109" type="0" route="1" color="0.000000,0.000000,1.000000" depart="260" />
    <vehicle id="veh_110" type="0" route="5" color="1.000000,1.000000,0.000000" depart="261" />
    <vehicle id="veh_111" type="2" route="2" color="1.000000,0.000000,0.000000" depart="266" />
    <vehicle id="veh_112" type="3" route="8" color="0.000000,1.000000,1.000000" depart="267" />
    <vehicle id="veh_113" type="0" route="0" color="1.000000,0.000000,1.000000" depart="269" />
    <vehicle id="veh_114" type="2" route="8" color="1.000000,1.000000,0.000000" depart="272" />
    <vehicle id="veh_115" type="0" route="11" color="0.000000,1.000000,1.000000" depart="272" />
    <vehicle id="veh_116" type="0" route="5" color="1.000000,0.000000,0.000000" depart="273" />
    <vehicle id="veh_117" type="2" route="6" color="0.000000,1.000000,1.000000" depart="273" />
    <vehicle id="veh_118" type="2" route="2" color="1.000000,1.000000,0.000000" depart="275" />
    <vehicle id="veh_119" type="0" route="8" color="1.000000,1.000000,0.000000" depart="276" />
    <vehicle id="veh_120" type="3" route="11" color="1.000000,1.000000,1.000000" depart="276" />
    <vehicle id="veh_121" type="0" route="6" color="0.000000,0.000000,1.000000" depart="280" />
    <vehicle id="veh_122" type="3" route="10" color="0.000000,0.000000,1.000000" depart="282" />
    <vehicle id="veh_123" type="1" route="4" color="1.000000,0.000000,0.000000" depart="285" />
    <vehicle id="veh_124" type="3" route="6" color="0.000000,1.000000,0.000000" depart="289" />
    <vehicle id="veh_125" type="3" route="9" color="1.000000,1.000000,0.000000" depart="290" />
    <vehicle id="veh_126" type="0" route="4" color="1.000000,1.000000,1.000000" depart="292" />
    <vehicle id="veh_127" type="2" route="0" color="1.000000,0.000000,0.000000" depart="305" />
    <vehicle id="veh_128" type="2" route="11" color="0.000000,1.000000,1.000000" depart="307" />
    <vehicle id="veh_129" type="3" route="4" color="0.000000,0.000000,1.000000" depart="310" />
    <vehicle id="veh_130" type="2" route="10" color="1.000000,0.000000,0.000000" depart="310" />
    <vehicle id="veh_131" type="2" route="7" color="1.000000,1.000000,1.000000" depart="311" />
    <vehicle id="veh_132" type="2" route="0" color="1.000000,0.000000,0.000000" depart="315" />
    <vehicle id="veh_133" type="0" route="7" color="1.000000,0.000000,1.000000" depart="315" />
    <vehicle id="veh_134" type="3" route="2" color="1.000000,0.000000,0.000000" depart="316" />
    <vehicle id="veh_135" type="2" route="1" color="0.000000,1.000000,1.000000" depart="317" />
    <vehicle id="veh_136" type="2" route="11" color="1.000000,1.000000,1.000000" depart="319" />
    <vehicle id="veh_137" type="1" route="11" color="1.000000,0.000000,1.000000" depart="321" />
    <vehicle id="veh_138" type="0" route="1" color="1.000000,1.000000,1.000000" depart="323" />
    <vehicle id="veh_139" type="1" route="6" color="1.000000,1.000000,0.000000" depart="324" />
    <vehicle id="veh_140" type="3" route="2" color="1.000000,0.000000,0.000000" depart="325" />
    <vehicle id="veh_141" type="1" route="9" color="1.000000,0.000000,0.000000" depart="325" />
    <vehicle id="veh_142" type="2" route="7" color="1.000000,0.000000,0.000000" depart="331" />
    <vehicle id="veh_143" type="3" route="6" color="1.000000,0.000000,0.000000" depart="332" />
    <vehicle id="veh_144" type="1" route="6" color="1.000000,1.000000,1.000000" depart="340" />
    <vehicle id="veh_145" type="2" route="1" color="0.000000,1.000000,1.000000" depart="349" />
    <vehicle id="veh_146" type="1" route="6" color="1.000000,0.000000,0.000000" depart="351" />
    <vehicle id="veh_147" type="3" route="9" color="1.000000,1.000000,1.000000" depart="351" />
    <vehicle id="veh_148" type="1" route="6" color="1.000000,0.000000,0.000000" depart="352" />
    <vehicle id="veh_149" type="3" route="0" color="0.000000,0.000000,1.000000" depart="355" />
    <vehicle id="veh_150" type="0" route="0" color="1.000000,0.000000,1.000000" depart="358" />
    <vehicle id="veh_151" type="0" route="8" color="1.000000,0.000000,1.000000" depart="358" />
    <vehicle id="veh_152" type="2" route="10" color="1.000000,0.000000,0.000000" depart="360" />
    <vehicle id="veh_153" type="0" route="9" color="1.000000,1.000000,1.000000" depart="361" />
    <vehicle id="veh_154" type="1" route="1" color="0.000000,1.000000,1.000000" depart="364" />
    <vehicle id="veh_155" type="2" route="6" color="1.000000,0.000000,1.000000" depart="364" />
    <vehicle id="veh_156" type="3" route="9" color="0.000000,0.000000,1.000000" depart="367" />
    <vehicle id="veh_157" type="1" route="0" color="0.000000,1.000000,1.000000" depart="371" />
    <vehicle id="veh_158" type="0" route="9" color="0.000000,1.000000,1.000000" depart="372" />
    <vehicle id="veh_159" type="3" route="7" color="1.000000,0.000000,0.000000" depart="378" />
    <vehicle id="veh_160" type="2" route="11" color="0.000000,0.000000,1.000000" depart="379" />
    <vehicle id="veh_161" type="3" route="1" color="1.000000,0.000000,0.000000" depart="384" />
    <vehicle id="veh_162" type="3" route="4" color="1.000000,1.000000,0.000000" depart="385" />
    <vehicle id="veh_163" type="1" route="2" color="1.000000,1.000000,1.000000" depart="386" />
    <vehicle id="veh_164" type="0" route="4" color="1.000000,1.000000,1.000000" depart="386" />
    <vehicle id="veh_165" type="0" route="6" color="1.000000,0.000000,0.000000" depart="387" />
    <vehicle id="veh_166" type="0" route="0" color="1.000000,0.000000,1.000000" depart="390" />
    <vehicle id="veh_167" type="3" route="7" color="0.000000,1.000000,0.000000" depart="395" />
    <vehicle id="veh_168" type="0" route="7" color="0.000000,1.000000,0.000000" depart="398" />
    <vehicle id="veh_169" type="3" route="9" color="1.000000,0.000000,0.000000" depart="401" />
    <vehicle id="veh_170" type="2" route="8" color="0.000000,1.000000,0.000000" depart="402" />
    <vehicle id="veh_171" type="2" route="7" color="1.000000,1.000000,0.000000" depart="411" />
    <vehicle id="veh_172" type="1" route="1" color="1.000000,0.000000,1.000000" depart="418" />
    <vehicle id="veh_173" type="2" route="5" color="1.000000,1.000000,0.000000" depart="434" />
    <vehicle id="veh_174" type="0" route="0" color="1.000000,1.000000,0.000000" depart="436" />
    <vehicle id="veh_175" type="3" route="7" color="0.000000,1.000000,1.000000" depart="445" />
    <vehicle id="veh_176" type="3" route="3" color="1.000000,0.000000,0.000000" depart="449" />
    <vehicle id="veh_177" type="0" route="1" color="1.000000,1.000000,0.000000" depart="450" />
    <vehicle id="veh_178" type="2" route="5" color="0.000000,1.000000,1.000000" depart="450" />
    <vehicle id="veh_179" type="3" route="5" color="1.000000,0.000000,0.000000" depart="459" />
    <vehicle id="veh_180" type="3" route="7" color="0.000000,0.000000,1.000000" depart="461" />
    <vehicle id="veh_181" type="3" route="2" color="0.000000,1.000000,0.000000" depart="464" />
    <vehicle id="veh_182" type="2" route="10" color="0.000000,1.000000,1.000000" depart="469" />
    <vehicle id="veh_183" type="1" route="8" color="1.000000,0.000000,1.000000" depart="470" />
    <vehicle id="veh_184" type="1" route="3" color="1.000000,0.000000,0.000000" depart="472" />
    <vehicle id="veh_185" type="0" route="8" color="0.000000,0.000000,1.000000" depart="472" />
    <vehicle id="veh_186" type="3" route="1" color="0.000000,1.000000,0.000000" depart="473" />
    <vehicle id="veh_187" type="1" route="3" color="1.000000,1.000000,1.000000" depart="490" />
    <vehicle id="veh_188" type="3" route="11" color="1.000000,1.000000,0.000000" depart="490" />
    <vehicle id="veh_189" type="1" route="9" color="1.000000,0.000000,0.000000" depart="493" />
    <vehicle id="veh_190" type="1" route="9" color="1.000000,0.000000,0.000000" depart="494" />
    <vehicle id="veh_191" type="3" route="10" color="0.000000,1.000000,1.000000" depart="502" />
    <vehicle id="veh_192" type="1" route="11" color="1.000000,0.000000,0.000000" depart="503" />
    <vehicle id="veh_193" type="1" route="4" color="0.000000,0.000000,1.000000" depart="506" />
    <vehicle id="veh_194" type="2" route="4" color="1.000000,1.000000,1.000000" depart="507" />
    <vehicle id="veh_195" type="0" route="1" color="1.000000,1.000000,1.000000" depart="509" />
    <vehicle id="veh_196" type="3" route="5" color="0.000000,1.000000,1.000000" depart="509" />
    <vehicle id="veh_197" type="1" route="11" color="1.000000,0.000000,1.000000" depart="509" />
    <vehicle id="veh_198" type="2" route="7" color="1.000000,1.000000,0.000000" depart="512" />
    <vehicle id="veh_199" type="2" route="7" color="1.000000,1.000000,0.000000" depart="516" />
    <vehicle id="veh_200" type="3" route="11" color="0.000000,1.000000,1.000000" depart="519" />
    <vehicle id="veh_201" type="1" route="10" color="1.000000,1.000000,1.000000" depart="524" />
    <vehicle id="veh_202" type="2" route="10" color="1.000000,1.000000,0.000000" depart="525" />
    <vehicle id="veh_203" type="1" route="1" color="1.000000,1.000000,0.000000" depart="529" />
    <vehicle id="veh_204" type="3" route="4" color="1.000000,0.000000,1.000000" depart="536" />
    <vehicle id="veh_205" type="3" route="2" color="1.000000,0.000000,1.000000" depart="543" />
    <vehicle id="veh_206" type="1" route="1" color="0.000000,1.000000,0.000000" depart="545" />
    <vehicle id="veh_207" type="2" route="3" color="1.000000,0.000000,0.000000" depart="545" />
    <vehicle id="veh_208" type="2" route="8" color="1.000000,0.000000,0.000000" depart="545" />
    <vehicle id="veh_209" type="0" route="11" color="1.000000,1.000000,0.000000" depart="545" />
    <vehicle id="veh_210" type="2" route="1" color="0.000000,1.000000,1.000000" depart="546" />
    <vehicle id="veh_211" type="3" route="6" color="1.000000,1.000000,1.000000" depart="546" />
    <vehicle id="veh_212" type="2" route="7" color="1.000000,0.000000,1.000000" depart="551" />
    <vehicle id="veh_213" type="2" route="4" color="0.000000,1.000000,0.000000" depart="555" />
    <vehicle id="veh_214" type="2" route="11" color="1.000000,1.000000,0.000000" depart="562" />
    <vehicle id="veh_215" type="3" route="0" color="0.000000,1.000000,0.000000" depart="563" />
    <vehicle id="veh_216" type="2" route="2" color="1.000000,0.000000,1.000000" depart="564" />
    <vehicle id="veh_217" type="1" route="4" color="1.000000,0.000000,0.000000" depart="565" />
    <vehicle id="veh_218" type="0" route="10" color="1.000000,0.000000,0.000000" depart="566" />
    <vehicle id="veh_219" type="3" route="10" color="1.000000,1.000000,1.000000" depart="567" />
    <vehicle id="veh_220" type="0" route="2" color="0.000000,1.000000,1.000000" depart="572" />
    <vehicle id="veh_221" type="2" route="1" color="1.000000,0.000000,0.000000" depart="574" />
    <vehicle id="veh_222" type="0" route="3" color="0.000000,1.000000,1.000000" depart="575" />
    <vehicle id="veh_223" type="2" route="11" color="1.000000,0.000000,0.000000" depart="575" />
    <vehicle id="veh_224" type="2" route="0" color="0.000000,1.000000,1.000000" depart="576" />
    <vehicle id="veh_225" type="1" route="0" color="1.000000,0.000000,0.000000" depart="579" />
    <vehicle id="veh_226" type="3" route="3" color="1.000000,0.000000,0.000000" depart="579" />
    <vehicle id="veh_227" type="2" route="6" color="1.000000,1.000000,0.000000" depart="582" />
    <vehicle id="veh_228" type="0" route="11" color="1.000000,0.000000,0.000000" depart="592" />
    <vehicle id="veh_229" type="2" route="5" color="0.000000,1.000000,1.000000" depart="597" />
    <vehicle id="veh_230" type="3" route="6" color="1.000000,1.000000,1.000000" depart="602" />
    <vehicle id="veh_231" type="0" route="0" color="0.000000,0.000000,1.000000" depart="603" />
    <vehicle id="veh_232" type="1" route="6" color="1.000000,0.000000,1.000000" depart="605" />
    <vehicle id="veh_233" type="3" route="10" color="0.000000,1.000000,1.000000" depart="605" />
    <vehicle id="veh_234" type="2" route="5" color="1.000000,0.000000,1.000000" depart="606" />
    <vehicle id="veh_235" type="0" route="11" color="1.000000,0.000000,0.000000" depart="610" />
    <vehicle id="veh_236" type="1" route="9" color="1.000000,1.000000,1.000000" depart="611" />
    <vehicle id="veh_237" type="2" route="2" color="1.000000,0.000000,1.000000" depart="613" />
    <vehicle id="veh_238" type="1" route="9" color="0.000000,0.000000,1.000000" depart="618" />
    <vehicle id="veh_239" type="0" route="0" color="1.000000,0.000000,0.000000" depart="621" />
    <vehicle id="veh_240" type="3" route="8" color="1.000000,1.000000,1.000000" depart="624" />
    <vehicle id="veh_241" type="2" route="2" color="1.000000,0.000000,0.000000" depart="626" />
    <vehicle id="veh_242" type="2" route="5" color="1.000000,0.000000,0.000000" depart="628" />
    <vehicle id="veh_243" type="0" route="5" color="0.000000,1.000000,0.000000" depart="631" />
    <vehicle id="veh_244" type="3" route="5" color="0.000000,1.000000,1.000000" depart="639" />
    <vehicle id="veh_245" type="2" route="2" color="0.000000,0.000000,1.000000" depart="642" />
    <vehicle id="veh_246" type="3" route="0" color="0.000000,1.000000,0.000000" depart="643" />
    <vehicle id="veh_247" type="2" route="1" color="0.000000,1.000000,1.000000" depart="644" />
    <vehicle id="veh_248" type="3" route="2" color="0.000000,1.000000,0.000000" depart="645" />
    <vehicle id="veh_249" type="0" route="8" color="1.000000,0.000000,0.000000" depart="647" />
    <vehicle id="veh_250" type="0" route="10" color="1.000000,1.000000,1.000000" depart="647" />
    <vehicle id="veh_251" type="1" route="1" color="1.000000,0.000000,0.000000" depart="648" />
    <vehicle id="veh_252" type="1" route="6" color="1.000000,0.000000,0.000000" depart="653" />
    <vehicle id="veh_253" type="0" route="8" color="0.000000,0.000000,1.000000" depart="654" />
    <vehicle id="veh_254" type="1" route="6" color="0.000000,1.000000,1.000000" depart="656" />
    <vehicle id="veh_255" type="0" route="7" color="1.000000,0.000000,1.000000" depart="657" />
    <vehicle id="veh_256" type="2" route="11" color="1.000000,1.000000,0.000000" depart="658" />
    <vehicle id="veh_257" type="0" route="11" color="1.000000,1.000000,1.000000" depart="664" />
    <vehicle id="veh_258" type="1" route="2" color="0.000000,1.000000,0.000000" depart="665" />
    <vehicle id="veh_259" type="0" route="3" color="1.000000,0.000000,1.000000" depart="669" />
    <vehicle id="veh_260" type="2" route="5" color="1.000000,1.000000,1.000000" depart="670" />
    <vehicle id="veh_261" type="1" route="7" color="1.000000,0.000000,1.000000" depart="670" />
    <vehicle id="veh_262" type="2" route="4" color="1.000000,0.000000,0.000000" depart="671" />
    <vehicle id="veh_263" type="0" route="3" color="1.000000,1.000000,0.000000" depart="677" />
    <vehicle id="veh_264" type="2" route="3" color="0.000000,1.000000,0.000000" depart="678" />
    <vehicle id="veh_265" type="2" route="2" color="0.000000,0.000000,1.000000" depart="679" />
    <vehicle id="veh_266" type="0" route="5" color="1.000000,0.000000,0.000000" depart="680" />
    <vehicle id="veh_267" type="3" route="8" color="1.000000,0.000000,0.000000" depart="686" />
    <vehicle id="veh_268" type="3" route="4" color="1.000000,0.000000,1.000000" depart="689" />
    <vehicle id="veh_269" type="2" route="8" color="1.000000,0.000000,1.000000" depart="693" />
    <vehicle id="veh_270" type="0" route="3" color="0.000000,1.000000,0.000000" depart="694" />
    <vehicle id="veh_271" type="2" route="4" color="0.000000,1.000000,1.000000" depart="701" />
    <vehicle id="veh_272" type="3" route="3" color="1.000000,0.000000,1.000000" depart="704" />
    <vehicle id="veh_273" type="1" route="8" color="1.000000,1.000000,0.000000" depart="704" />
    <vehicle id="veh_274" type="2" route="3" color="0.000000,1.000000,1.000000" depart="705" />
    <vehicle id="veh_275" type="1" route="6" color="0.000000,0.000000,1.000000" depart="705" />
    <vehicle id="veh_276" type="3" route="2" color="0.000000,1.000000,1.000000" depart="706" />
    <vehicle id="veh_277" type="2" route="11" color="1.000000,1.000000,1.000000" depart="707" />
    <vehicle id="veh_278" type="1" route="6" color="1.000000,0.000000,1.000000" depart="708" />
    <vehicle id="veh_279" type="1" route="11" color="1.000000,0.000000,0.000000" depart="709" />
    <vehicle id="veh_280" type="1" route="0" color="1.000000,0.000000,0.000000" depart="716" />
    <vehicle id="veh_281" type="3" route="10" color="1.000000,0.000000,1.000000" depart="717" />
    <vehicle id="veh_282" type="1" route="5" color="1.000000,1.000000,1.000000" depart="719" />
    <vehicle id="veh_283" type="0" route="1" color="1.000000,1.000000,0.000000" depart="729" />
    <vehicle id="veh_284" type="1" route="1" color="1.000000,0.000000,0.000000" depart="732" />
    <vehicle id="veh_285" type="0" route="0" color="0.000000,0.000000,1.000000" depart="734" />
    <vehicle id="veh_286" type="2" route="3" color="1.000000,0.000000,1.000000" depart="735" />
    <vehicle id="veh_287" type="1" route="4" color="0.000000,0.000000,1.000000" depart="737" />
    <vehicle id="veh_288" type="2" route="1" color="1.000000,0.000000,0.000000" depart="743" />
    <vehicle id="veh_289" type="3" route="4" color="1.000000,1.000000,1.000000" depart="743" />
    <vehicle id="veh_290" type="2" route="2" color="1.000000,1.000000,0.000000" depart="746" />
    <vehicle id="veh_291" type="0" route="1" color="1.000000,1.000000,1.000000" depart="749" />
    <vehicle id="veh_292" type="3" route="0" color="1.000000,0.000000,0.000000" depart="755" />
    <vehicle id="veh_293" type="0" route="1" color="0.000000,1.000000,0.000000" depart="758" />
    <vehicle id="veh_294" type="1" route="9" color="1.000000,0.000000,0.000000" depart="758" />
    <vehicle id="veh_295" type="2" route="7" color="1.000000,0.000000,1.000000" depart="759" />
    <vehicle id="veh_296" type="3" route="11" color="1.000000,1.000000,1.000000" depart="759" />
    <vehicle id="veh_297" type="0" route="7" color="0.000000,1.000000,1.000000" depart="760" />
    <vehicle id="veh_298" type="3" route="2" color="1.000000,0.000000,0.000000" depart="764" />
    <vehicle id="veh_299" type="3" route="3" color="1.000000,0.000000,0.000000" depart="767" />
    <vehicle id="veh_300" type="2" route="1" color="1.000000,0.000000,1.000000" depart="768" />
    <vehicle id="veh_301" type="0" route="2" color="0.000000,1.000000,1.000000" depart="770" />