
			<routes>
				<vType id="0" accel="2" decel="4.5" sigma="0.5" length="5" minGap="2.5" maxSpeed="14" guiShape="passenger"/>
				<vType id="1" accel="2" decel="4.5" sigma="0.5" length="3" minGap="2.5" maxSpeed="14" guiShape="passenger"/>
				<vType id="2" accel="2" decel="4.5" sigma="0.5" length="4" minGap="2.5" maxSpeed="14" guiShape="passenger"/>
				<vType id="3" accel="2" decel="4.5" sigma="0.5" length="10" minGap="3" maxSpeed="14" guiShape="bus"/>

				<route id="0" edges="west_right north_up" />
				<route id="1" edges="west_right east_right" />
				<route id="2" edges="west_right south_down" />

				<route id="3" edges="north_down east_right" />
				<route id="4" edges="north_down south_down" />
				<route id="5" edges="north_down west_left" />

				<route id="6" edges="east_left south_down" />
				<route id="7" edges="east_left west_left" />
				<route id="8" edges="east_left north_up" />

				<route id="9" edges="south_up west_left" />
				<route id="10" edges="south_up north_up" />
				<route id="11" edges="south_up east_right" />

			
    <vehicle id="veh_0" type="1" route="2" color="1.000000,1.000000,0.000000" depart="1" />
    <vehicle id="veh_1" type="3" route="4" color="0.000000,1.000000,1.000000" depart="2" />
    <vehicle id="veh_2" type="2" route="9" color="1.000000,1.000000,0.000000" depart="2" />
    <vehicle id="veh_3" type="0" route="11" color="1.000000,1.000000,1.000000" depart="3" />
    <vehicle id="veh_4" type="0" route="2" color="1.000000,0.000000,0.000000" depart="4" />
    <vehicle id="veh_5" type="0" route="0" color="1.000000,0.000000,0.000000" depart="5" />
    <vehicle id="veh_6" type="2" route="6" color="0.000000,1.000000,1.000000" depart="6" />
    <vehicle id="veh_7" type="1" route="6" color="1.000000,0.000000,0.000000" depart="7" />
    <vehicle id="veh_8" type="3" route="11" color="1.000000,0.000000,1.000000" depart="7" />
    <vehicle id="veh_9" type="3" route="1" color="0.000000,1.000000,1.000000" depart="10" />
    <vehicle id="veh_10" type="0" route="7" color="1.000000,1.000000,0.000000" depart="10" />
    <vehicle id="veh_11" type="3" route="8" color="1.000000,0.000000,0.000000" depart="12" />
    <vehicle id="veh_12" type="0" route="0" color="1.000000,1.000000,1.000000" depart="13" />
    <vehicle id="veh_13" type="1" route="5" color="0.000000,1.000000,0.000000" depart="13" />
    <vehicle id="veh_14" type="0" route="5" color="0.000000,1.000000,1.000000" depart="14" />
    <vehicle id="veh_15" type="3" route="7" color="0.000000,0.000000,1.000000" depart="15" />
    <vehicle id="veh_16" type="0" route="7" color="1.000000,0.000000,1.000000" depart="18" />
    <vehicle id="veh_17" type="1" route="11" color="1.000000,0.000000,0.000000" depart="20" />
    <vehicle id="veh_18" type="1" route="8" color="1.000000,0.000000,0.000000" depart="22" />
    <vehicle id="veh_19" type="1" route="11" color="0.000000,0.000000,1.000000" depart="23" />
    <vehicle id="veh_20" type="2" route="8" color="1.000000,0.000000,0.000000" depart="26" />
    <vehicle id="veh_21" type="2" route="11" color="1.000000,1.000000,1.000000" depart="26" />
    <vehicle id="veh_22" type="0" route="8" color="0.000000,1.000000,1.000000" depart="27" />
    <vehicle id="veh_23" type="1" route="2" color="1.000000,1.000000,1.000000" depart="28" />
    <vehicle id="veh_24" type="0" route="2" color="1.000000,0.000000,1.000000" depart="32" />
    <vehicle id="veh_25" type="1" route="0" color="1.000000,0.000000,0.000000" depart="33" />
    <vehicle id="veh_26" type="2" route="4" color="1.000000,1.000000,1.000000" depart="36" />
    <vehicle id="veh_27" type="2" route="6" color="1.000000,1.000000,1.000000" depart="37" />
    <vehicle id="veh_28" type="1" route="11" color="1.000000,1.000000,1.000000" depart="37" />
    <vehicle id="veh_29" type="2" route="0" color="1.000000,0.000000,0.000000" depart="40" />
    <vehicle id="veh_30" type="2" route="4" color="0.000000,0.000000,1.000000" depart="41" />
    <vehicle id="veh_31" type="2" route="7" color="1.000000,0.000000,1.000000" depart="41" />
    <vehicle id="veh_32" type="3" route="3" color="0.000000,1.000000,1.000000" depart="45" />
    <vehicle id="veh_33" type="0" route="1" color="1.000000,1.000000,0.000000" depart="47" />
    <vehicle id="veh_34" type="0" route="5" color="0.000000,1.000000,1.000000" depart="47" />
    <vehicle id="veh_35" type="0" route="0" color="1.000000,0.000000,1.000000" depart="48" />
    <vehicle id="veh_36" type="2" route="5" color="0.000000,1.000000,1.000000" depart="48" />
    <vehicle id="veh_37" type="0" route="8" color="1.000000,1.000000,1.000000" depart="48" />
    <vehicle id="veh_38" type="0" route="3" color="0.000000,1.000000,1.000000" depart="49" />
    <vehicle id="veh_39" type="0" route="7" color="0.000000,1.000000,1.000000" depart="50" />
    <vehicle id="veh_40" type="1" route="2" color="1.000000,1.000000,0.000000" depart="51" />
    <vehicle id="veh_41" type="3" route="6" color="1.000000,1.000000,1.000000" depart="53" />
    <vehicle id="veh_42" type="1" route="10" color="1.000000,0.000000,1.000000" depart="56" />
    <vehicle id="veh_43" type="0" route="6" color="1.000000,0.000000,0.000000" depart="57" />
    <vehicle id="veh_44" type="2" route="4" color="1.000000,1.000000,0.000000" depart="58" />
    <vehicle id="veh_45" type="3" route="6" color="0.000000,1.000000,0.000000" depart="58" />
    <vehicle id="veh_46" type="3" route="10" color="1.000000,0.000000,0.000000" depart="58" />
    <vehicle id="veh_47" type="0" route="0" color="1.000000,1.000000,0.000000" depart="60" />
    <vehicle id="veh_48" type="2" route="3" color="1.000000,0.000000,0.000000" depart="61" />
    <vehicle id="veh_49" type="1" route="2" color="1.000000,0.000000,1.000000" depart="62" />
    <vehicle id="veh_50" type="0" route="11" color="1.000000,0.000000,0.000000" depart="62" />
    <vehicle id="veh_51" type="3" route="1" color="1.000000,1.000000,1.000000" depart="63" />
    <vehicle id="veh_52" type="0" route="5" color="1.000000,1.000000,0.000000" depart="63" />
    <vehicle id="veh_53" type="0" route="9" color="1.000000,0.000000,1.000000" depart="64" />
    <vehicle id="veh_54" type="0" route="1" color="1.000000,1.000000,0.000000" depart="65" />
    <vehicle id="veh_55" type="3" route="1" color="1.000000,1.000000,1.000000" depart="67" />
    <vehicle id="veh_56" type="1" route="9" color="0.000000,0.000000,1.000000" depart="67" />
    <vehicle id="veh_57" type="0" route="3" color="1.000000,0.000000,0.000000" depart="68" />
    <vehicle id="veh_58" type="0" route="6" color="1.000000,1.000000,1.000000" depart="68" />
    <vehicle id="veh_59" type="2" route="10" color="0.000000,1.000000,1.000000" depart="69" />
    <vehicle id="veh_60" type="0" route="10" color="0.000000,1.000000,0.000000" depart="70" />
    <vehicle id="veh_61" type="0" route="2" color="1.000000,0.000000,1.000000" depart="72" />
    <vehicle id="veh_62" type="2" route="3" color="0.000000,1.000000,1.000000" depart="72" />
    <vehicle id="veh_63" type="1" route="6" color="1.000000,0.000000,0.000000" depart="72" />
    <vehicle id="veh_64" type="2" route="4" color="1.000000,0.000000,0.000000" depart="73" />
    <vehicle id="veh_65" type="2" route="5" color="1.000000,0.000000,0.000000" depart="75" />
    <vehicle id="veh_66" type="0" route="5" color="1.000000,0.000000,0.000000" depart="76" />
    <vehicle id="veh_67" type="1" route="5" color="1.000000,1.000000,0.000000" depart="77" />
    <vehicle id="veh_68" type="1" route="0" color="0.000000,1.000000,0.000000" depart="78" />
    <vehicle id="veh_69" type="0" route="11" color="1.000000,0.000000,0.000000" depart="83" />
    <vehicle id="veh_70" type="3" route="7" color="0.000000,1.000000,1.000000" depart="84" />
    <vehicle id="veh_71" type="3" route="10" color="1.000000,1.000000,1.000000" depart="86" />
    <vehicle id="veh_72" type="0" route="2" color="1.000000,0.000000,1.000000" depart="87" />
    <vehicle id="veh_73" type="0" route="4" color="1.000000,0.000000,0.000000" depart="88" />
    <vehicle id="veh_74" type="1" route="5" color="1.000000,0.000000,1.000000" depart="90" />
    <vehicle id="veh_75" type="2" route="11" color="0.000000,1.000000,0.000000" depart="92" />
    <vehicle id="veh_76" type="1" route="9" color="1.000000,0.000000,1.000000" depart="95" />
    <vehicle id="veh_77" type="1" route="0" color="0.000000,0.000000,1.000000" depart="96" />
    <vehicle id="veh_78" type="1" route="2" color="1.000000,0.000000,0.000000" depart="98" />
    <vehicle id="veh_79" type="2" route="3" color="0.000000,0.000000,1.000000" depart="98" />
    <vehicle id="veh_80" type="2" route="6" color="1.000000,0.000000,0.000000" depart="101" />
    <vehicle id="veh_81" type="2" route="4" color="0.000000,1.000000,1.000000" depart="104" />
    <vehicle id="veh_82" type="1" route="11" color="0.000000,1.000000,0.000000" depart="104" />
    <vehicle id="veh_83" type="3" route="11" color="1.000000,1.000000,1.000000" depart="107" />
    <vehicle id="veh_84" type="0" route="4" color="1.000000,1.000000,0.000000" depart="109" />
    <vehicle id="veh_85" type="0" route="1" color="1.000000,1.000000,1.000000" depart="110" />
    <vehicle id="veh_86" type="2" route="3" color="1.000000,0.000000,0.000000" depart="110" />
    <vehicle id="veh_87" type="3" route="8" color="1.000000,0.000000,1.000000" depart="111" />
    <vehicle id="veh_88" type="2" route="10" color="0.000000,1.000000,1.000000" depart="111" />
    <vehicle id="veh_89" type="2" route="11" color="0.000000,1.000000,0.000000" depart="112" />
    <vehicle id="veh_90" type="0" route="6" color="0.000000,1.000000,1.000000" depart="113" />
    <vehicle id="veh_91" type="2" route="5" color="1.000000,1.000000,0.000000" depart="115" />
    <vehicle id="veh_92" type="2" route="3" color="1.000000,0.000000,0.000000" depart="117" />
    <vehicle id="veh_93" type="3" route="2" color="0.000000,0.000000,1.000000" depart="118" />
    <vehicle id="veh_94" type="2" route="9" color="1.000000,0.000000,0.000000" depart="120" />
    <vehicle id="veh_95" type="3" route="1" color="0.000000,0.000000,1.000000" depart="122" />
    <vehicle id="veh_96" type="0" route="2" color="1.000000,0.000000,0.000000" depart="125" />
    <vehicle id="veh_97" type="2" route="2" color="0.000000,1.000000,1.000000" depart="126" />
    <vehicle id="veh_98" type="1" route="7" color="1.000000,1.000000,0.000000" depart="126" />
    <vehicle id="veh_99" type="3" route="11" color="0.000000,1.000000,0.000000" depart="127" />
    <vehicle id="veh_100" type="0" route="7" color="0.000000,1.000000,1.000000" depart="128" />
    <vehicle id="veh_101" type="1" route="4" color="1.000000,0.000000,0.000000" depart="129" />
    <vehicle id="veh_102" type="0" route="5" color="1.000000,0.000000,1.000000" depart="130" />
    <vehicle id="veh_103" type="1" route="11" color="0.000000,1.000000,0.000000" depart="130" />
    <vehicle id="veh_104" type="0" route="0" color="1.000000,0.000000,0.000000" depart="131" />
    <vehicle id="veh_105" type="3" route="2" color="1.000000,0.000000,0.000000" depart="132" />
    <vehicle id="veh_106" type="3" route="8" color="0.000000,1.000000,0.000000" depart="133" />
    <vehicle id="veh_107" type="0" route="6" color="1.000000,0.000000,1.000000" depart="137" />
    <vehicle id="veh_108" type="3" route="10" color="0.000000,0.000000,1.000000" depart="141" />
    <vehicle id="veh_109" type="2" route="3" color="1.000000,0.000000,0.000000" depart="142" />
    <vehicle id="veh_110" type="0" route="1" color="0.000000,0.000000,1.000000" depart="144" />
    <vehicle id="veh_111" type="3" route="3" color="1.000000,0.000000,0.000000" depart="147" />
    <vehicle id="veh_112" type="1" route="4" color="1.000000,1.000000,1.000000" depart="148" />
    <vehicle id="veh_113" type="2" route="3" color="0.000000,0.000000,1.000000" depart="150" />
    <vehicle id="veh_114" type="0" route="8" color="0.000000,0.000000,1.000000" depart="150" />
    <vehicle id="veh_115" type="0" route="9" color="1.000000,1.000000,1.000000" depart="151" />
    <vehicle id="veh_116" type="1" route="0" color="0.000000,1.000000,1.000000" depart="155" />
    <vehicle id="veh_117" type="1" route="7" color="0.000000,1.000000,1.000000" depart="155" />
    <vehicle id="veh_118" type="2" route="11" color="0.000000,0.000000,1.000000" depart="157" />
    <vehicle id="veh_119" type="0" route="8" color="1.000000,1.000000,0.000000" depart="160" />
    <vehicle id="veh_120" type="3" route="3" color="1.000000,0.000000,1.000000" depart="162" />
    <vehicle id="veh_121" type="2" route="11" color="0.000000,1.000000,1.000000" depart="162" />
    <vehicle id="veh_122" type="3" route="8" color="0.000000,1.000000,0.000000" depart="165" />
    <vehicle id="veh_123" type="0" route="8" color="1.000000,0.000000,1.000000" depart="166" />
    <vehicle id="veh_124" type="2" route="6" color="1.000000,1.000000,0.000000" depart="168" />
    <vehicle id="veh_125" type="1" route="0" color="1.000000,0.000000,0.000000" depart="169" />
    <vehicle id="veh_126" type="2" route="7" color="0.000000,1.000000,0.000000" depart="171" />
    <vehicle id="veh_127" type="3" route="9" color="0.000000,0.000000,1.000000" depart="172" />
    <vehicle id="veh_128" type="0" route="1" color="0.000000,1.000000,0.000000" depart="174" />
    <vehicle id="veh_129" type="2" route="1" color="0.000000,1.000000,0.000000" depart="176" />
    <vehicle id="veh_130" type="1" route="1" color="0.000000,1.000000,1.000000" depart="177" />
    <vehicle id="veh_131" type="1" route="6" color="1.000000,1.000000,0.000000" depart="177" />
    <vehicle id="veh_132" type="1" route="5" color="0.000000,0.000000,1.000000" depart="179" />
    <vehicle id="veh_133" type="1" route="0" color="1.000000,0.000000,1.000000" depart="181" />
    <vehicle id="veh_134" type="3" route="1" color="1.000000,0.000000,0.000000" depart="182" />
    <vehicle id="veh_135" type="2" route="0" color="1.000000,0.000000,0.000000" depart="184" />
    <vehicle id="veh_136" type="3" route="5" color="1.000000,0.000000,0.000000" depart="184" />
    <vehicle id="veh_137" type="0" route="0" color="1.000000,1.000000,1.000000" depart="185" />
    <vehicle id="veh_138" type="3" route="3" color="0.000000,1.000000,0.000000" depart="185" />
    <vehicle id="veh_139" type="2" route="1" color="0.000000,0.000000,1.000000" depart="186" />
    <vehicle id="veh_140" type="1" route="6" color="1.000000,1.000000,0.000000" depart="186" />
    <vehicle id="veh_141" type="2" route="8" color="0.000000,0.000000,1.000000" depart="187" />
    <vehicle id="veh_142" type="0" route="11" color="1.000000,0.000000,0.000000" depart="187" />
    <vehicle id="veh_143" type="0" route="7" color="0.000000,1.000000,1.000000" depart="188" />
    <vehicle id="veh_144" type="3" route="7" color="1.000000,1.000000,0.000000" depart="189" />
    <vehicle id="veh_145" type="2" route="6" color="1.000000,0.000000,0.000000" depart="190" />
    <vehicle id="veh_146" type="0" route="3" color="0.000000,1.000000,0.000000" depart="192" />
    <vehicle id="veh_147" type="2" route="10" color="1.000000,0.000000,0.000000" depart="192" />
    <vehicle id="veh_148" type="2" route="5" color="1.000000,1.000000,0.000000" depart="193" />
    <vehicle id="veh_149" type="3" route="6" color="0.000000,1.000000,1.000000" depart="194" />
    <vehicle id="veh_150" type="2" route="11" color="1.000000,1.000000,0.000000" depart="194" />
    <vehicle id="veh_151" type="3" route="0" color="1.000000,0.000000,0.000000" depart="201" />
    <vehicle id="veh_152" type="2" route="11" color="0.000000,0.000000,1.000000" depart="201" />
    <vehicle id="veh_153" type="1" route="9" color="1.000000,0.000000,1.000000" depart="203" />
    <vehicle id="veh_154" type="2" route="7" color="0.000000,0.000000,1.000000" depart="204" />
    <vehicle id="veh_155" type="1" route="3" color="1.000000,1.000000,0.000000" depart="208" />
    <vehicle id="veh_156" type="2" route="2" color="1.000000,0.000000,0.000000" depart="209" />
    <vehicle id="veh_157" type="2" route="7" color="1.000000,0.000000,0.000000" depart="213" />
    <vehicle id="veh_158" type="1" route="9" color="1.000000,0.000000,0.000000" depart="215" />
    <vehicle id="veh_159" type="1" route="6" color="0.000000,0.000000,1.000000" depart="216" />
    <vehicle id="veh_160" type="2" route="11" color="1.000000,0.000000,0.000000" depart="216" />
    <vehicle id="veh_161" type="3" route="7" color="1.000000,1.000000,1.000000" depart="217" />
    <vehicle id="veh_162" type="2" route="11" color="1.000000,0.000000,0.000000" depart="219" />
    <vehicle id="veh_163" type="3" route="5" color="0.000000,1.000000,0.000000" depart="220" />
    <vehicle id="veh_164" type="3" route="10" color="1.000000,0.000000,1.000000" depart="220" />
    <vehicle id="veh_165" type="2" route="4" color="1.000000,1.000000,0.000000" depart="221" />
    <vehicle id="veh_166" type="1" route="9" color="0.000000,1.000000,1.000000" depart="221" />
    <vehicle id="veh_167" type="2" route="2" color="0.000000,1.000000,0.000000" depart="223" />
    <vehicle id="veh_168" type="0" route="0" color="0.000000,1.000000,1.000000" depart="226" />
    <vehicle id="veh_169" type="0" route="10" color="1.000000,0.000000,1.000000" depart="226" />
    <vehicle id="veh_170" type="3" route="1" color="1.000000,0.000000,1.000000" depart="227" />
    <vehicle id="veh_171" type="1" route="4" color="0.000000,0.000000,1.000000" depart="227" />
    <vehicle id="veh_172" type="3" route="1" color="0.000000,1.000000,0.000000" depart="228" />
    <vehicle id="veh_173" type="1" route="3" color="1.000000,0.000000,0.000000" depart="228" />
    <vehicle id="veh_174" type="3" route="4" color="0.000000,1.000000,0.000000" depart="230" />
    <vehicle id="veh_175" type="0" route="8" color="1.000000,1.000000,1.000000" depart="230" />
    <vehicle id="veh_176" type="0" route="1" color="0.000000,0.000000,1.000000" depart="233" />
    <vehicle id="veh_177" type="1" route="5" color="0.000000,0.000000,1.000000" depart="235" />
    <vehicle id="veh_178" type="0" route="9" color="1.000000,1.000000,1.000000" depart="235" />
    <vehicle id="veh_179" type="2" route="0" color="1.000000,0.000000,0.000000" depart="236" />
    <vehicle id="veh_180" type="2" route="7" color="1.000000,1.000000,1.000000" depart="236" />
    <vehicle id="veh_181" type="0" route="6" color="1.000000,0.000000,1.000000" depart="240" />
    <vehicle id="veh_182" type="1" route="11" color="0.000000,0.000000,1.000000" depart="242" />
    <vehicle id="veh_183" type="0" route="0" color="1.000000,0.000000,0.000000" depart="247" />
    <vehicle id="veh_184" type="1" route="5" color="1.000000,0.000000,0.000000" depart="247" />
    <vehicle id="veh_185" type="1" route="7" color="0.000000,1.000000,1.000000" depart="248" />
    <vehicle id="veh_186" type="0" route="9" color="0.000000,1.000000,0.000000" depart="250" />
    <vehicle id="veh_187" type="0" route="1" color="1.000000,0.000000,0.000000" depart="251" />
    <vehicle id="veh_188" type="2" route="1" color="0.000000,1.000000,0.000000" depart="252" />
    <vehicle id="veh_189" type="3" route="0" color="0.000000,0.000000,1.000000" depart="254" />
    <vehicle id="veh_190" type="1" route="4" color="1.000000,0.000000,1.000000" depart="254" />
    <vehicle id="veh_191" type="1" route="7" color="1.000000,1.000000,0.000000" depart="254" />
    <vehicle id="veh_192" type="1" route="2" color="1.000000,1.000000,0.000000" depart="255" />
    <vehicle id="veh_193" type="1" route="0" color="1.000000,0.000000,1.000000" depart="256" />
    <vehicle id="veh_194" type="0" route="0" color="0.000000,0.000000,1.000000" depart="258" />
    <vehicle id="veh_195" type="3" route="8" color="1.000000,0.000000,0.000000" depart="259" />
    <vehicle id="veh_196" type="3" route="9" color="0.000000,1.000000,1.000000" depart="259" />
    <vehicle id="veh_197" type="0" route="6" color="0.000000,1.000000,0.000000" depart="260" />
    <vehicle id="veh_198" type="2" route="3" color="0.000000,1.000000,1.000000" depart="262" />
    <vehicle id="veh_199" type="3" route="3" color="1.000000,0.000000,0.000000" depart="263" />
    <vehicle id="veh_200" type="3" route="7" color="1.000000,0.000000,1.000000" depart="263" />
    <vehicle id="veh_201" type="3" route="9" color="0.000000,1.000000,1.000000" depart="263" />
    <vehicle id="veh_202" type="0" route="4" color="1.000000,0.000000,1.000000" depart="265" />
    <vehicle id="veh_203" type="2" route="0" color="1.000000,1.000000,0.000000" depart="267" />
    <vehicle id="veh_204" type="0" route="3" color="1.000000,0.000000,0.000000" depart="269" />
    <vehicle id="veh_205" type="0" route="2" color="1.000000,1.000000,0.000000" depart="270" />
    <vehicle id="veh_206" type="0" route="4" color="1.000000,0.000000,0.000000" depart="271" />
    <vehicle id="veh_207" type="3" route="11" color="0.000000,0.000000,1.000000" depart="272" />
    <vehicle id="veh_208" type="3" route="1" color="1.000000,0.000000,0.000000" depart="273" />
    <vehicle id="veh_209" type="2" route="4" color="1.000000,1.000000,1.000000" depart="273" />
    <vehicle id="veh_210" type="0" route="9" color="0.000000,1.000000,1.000000" depart="273" />
    <vehicle id="veh_211" type="0" route="8" color="1.000000,0.000000,0.000000" depart="274" />
    <vehicle id="veh_212" type="1" route="1" color="0.000000,1.000000,1.000000" depart="275" />
    <vehicle id="veh_213" type="0" route="10" color="1.000000,1.000000,0.000000" depart="277" />
    <vehicle id="veh_214" type="0" route="2" color="1.000000,0.000000,0.000000" depart="278" />
    <vehicle id="veh_215" type="3" route="4" color="0.000000,1.000000,0.000000" depart="278" />
    <vehicle id="veh_216" type="0" route="9" color="1.000000,0.000000,0.000000" depart="278" />
    <vehicle id="veh_217" type="0" route="2" color="0.000000,1.000000,1.000000" depart="280" />
    <vehicle id="veh_218" type="1" route="1" color="1.000000,1.000000,1.000000" depart="281" />
    <vehicle id="veh_219" type="3" route="10" color="1.000000,0.000000,0.000000" depart="283" />
    <vehicle id="veh_220" type="2" route="1" color="1.000000,1.000000,0.000000" depart="287" />
    <vehicle id="veh_221" type="1" route="6" color="0.000000,1.000000,0.000000" depart="290" />
    <vehicle id="veh_222" type="0" route="11" color="1.000000,0.000000,0.000000" depart="291" />
    <vehicle id="veh_223" type="0" route="9" color="0.000000,1.000000,1.000000" depart="292" />
    <vehicle id="veh_224" type="1" route="9" color="1.000000,1.000000,1.000000" depart="293" />
    <vehicle id="veh_225" type="3" route="2" color="0.000000,0.000000,1.000000" depart="295" />
    <vehicle id="veh_226" type="2" route="1" color="1.000000,0.000000,0.000000" depart="296" />
    <vehicle id="veh_227" type="3" route="4" color="1.000000,0.000000,1.000000" depart="298" />
    <vehicle id="veh_228" type="3" route="2" color="1.000000,1.000000,1.000000" depart="300" />
    <vehicle id="veh_229" type="3" route="10" color="0.000000,1.000000,1.000000" depart="301" />
    <vehicle id="veh_230" type="1" route="10" color="0.000000,0.000000,1.000000" depart="304" />
    <vehicle id="veh_231" type="3" route="6" color="1.000000,0.000000,0.000000" depart="305" />
    <vehicle id="veh_232" type="1" route="10" color="0.000000,0.000000,1.000000" depart="307" />
    <vehicle id="veh_233" type="1" route="9" color="1.000000,0.000000,1.000000" depart="310" />
    <vehicle id="veh_234" type="3" route="0" color="0.000000,1.000000,0.000000" depart="311" />
    <vehicle id="veh_235" type="3" route="10" color="1.000000,0.000000,0.000000" depart="313" />
    <vehicle id="veh_236" type="0" route="0" color="1.000000,1.000000,0.000000" depart="316" />
    <vehicle id="veh_237" type="3" route="4" color="1.000000,0.000000,1.000000" depart="316" />
    <vehicle id="veh_238" type="2" route="1" color="1.000000,0.000000,1.000000" depart="317" />
    <vehicle id="veh_239" type="3" route="7" color="1.000000,0.000000,1.000000" depart="317" />
    <vehicle id="veh_240" type="1" route="9" color="0.000000,1.000000,1.000000" depart="317" />
    <vehicle id="veh_241" type="3" route="4" color="0.000000,1.000000,0.000000" depart="320" />
    <vehicle id="veh_242" type="3" route="5" color="0.000000,1.000000,1.000000" depart="321" />
    <vehicle id="veh_243" type="3" route="5" color="0.000000,1.000000,1.000000" depart="323" />
    <vehicle id="veh_244" type="0" route="3" color="0.000000,1.000000,0.000000" depart="325" />
    <vehicle id="veh_245" type="0" route="8" color="0.000000,0.000000,1.000000" depart="326" />
    <vehicle id="veh_246" type="1" route="11" color="1.000000,1.000000,1.000000" depart="326" />
    <vehicle id="veh_247" type="3" route="9" color="0.000000,0.000000,1.000000" depart="328" />
    <vehicle id="veh_248" type="0" route="4" color="1.000000,1.000000,0.000000" depart="329" />
    <vehicle id="veh_249" type="3" route="1" color="0.000000,1.000000,1.000000" depart="330" />
    <vehicle id="veh_250" type="1" route="5" color="0.000000,1.000000,0.000000" depart="331" />
    <vehicle id="veh_251" type="2" route="8" color="1.000000,0.000000,0.000000" depart="331" />
    <vehicle id="veh_252" type="2" route="2" color="0.000000,1.000000,1.000000" depart="333" />
    <vehicle id="veh_253" type="3" route="5" color="0.000000,1.000000,0.000000" depart="334" />
    <vehicle id="veh_254" type="1" route="9" color="1.000000,0.000000,1.000000" depart="335" />
    <vehicle id="veh_255" type="1" route="6" color="1.000000,1.000000,0.000000" depart="336" />
    <vehicle id="veh_256" type="3" route="2" color="0.000000,1.000000,0.000000" depart="339" />
    <vehicle id="veh_257" type="3" route="9" color="1.000000,1.000000,1.000000" depart="340" />
    <vehicle id="veh_258" type="1" route="8" color="1.000000,0.000000,0.000000" depart="343" />
    <vehicle id="veh_259" type="0" route="10" color="1.000000,0.000000,0.000000" depart="346" />
    <vehicle id="veh_260" type="0" route="10" color="0.000000,1.000000,0.000000" depart="347" />
    <vehicle id="veh_261" type="2" route="6" color="1.000000,1.000000,1.000000" depart="348" />
    <vehicle id="veh_262" type="0" route="2" color="1.000000,1.000000,1.000000" depart="349" />
    <vehicle id="veh_263" type="1" route="4" color="1.000000,0.000000,0.000000" depart="354" />
    <vehicle id="veh_264" type="1" route="1" color="0.000000,1.000000,0.000000" depart="355" />
    <vehicle id="veh_265" type="3" route="6" color="1.000000,0.000000,0.000000" depart="357" />
    <vehicle id="veh_266" type="3" route="9" color="1.000000,0.000000,0.000000" depart="357" />
    <vehicle id="veh_267" type="2" route="11" color="1.000000,1.000000,0.000000" depart="359" />
    <vehicle id="veh_268" type="3" route="4" color="0.000000,0.000000,1.000000" depart="360" />
    <vehicle id="veh_269" type="3" route="9" color="1.000000,1.000000,0.000000" depart="361" />
    <vehicle id="veh_270" type="2" route="0" color="1.000000,0.000000,0.000000" depart="363" />
    <vehicle id="veh_271" type="2" route="7" color="1.000000,1.000000,1.000000" depart="363" />
    <vehicle id="veh_272" type="3" route="1" color="1.000000,1.000000,1.000000" depart="366" />
    <vehicle id="veh_273" type="1" route="8" color="0.000000,1.000000,1.000000" depart="367" />
    <vehicle id="veh_274" type="1" route="11" color="1.000000,1.000000,0.000000" depart="367" />
    <vehicle id="veh_275" type="0" route="3" color="1.000000,0.000000,0.000000" depart="368" />
    <vehicle id="veh_276" type="0" route="7" color="1.000000,0.000000,0.000000" depart="368" />
    <vehicle id="veh_277" type="2" route="7" color="1.000000,1.000000,0.000000" depart="369" />
    <vehicle id="veh_278" type="3" route="1" color="1.000000,0.000000,0.000000" depart="370" />
    <vehicle id="veh_279" type="0" route="3" color="0.000000,1.000000,1.000000" depart="370" />
    <vehicle id="veh_280" type="2" route="9" color="1.000000,0.000000,1.000000" depart="371" />
    <vehicle id="veh_281" type="0" route="6" color="1.000000,0.000000,0.000000" depart="372" />
    <vehicle id="veh_282" type="1" route="9" color="0.000000,0.000000,1.000000" depart="373" />
    <vehicle id="veh_283" type="3" route="11" color="0.000000,1.000000,1.000000" depart="375" />
    <vehicle id="veh_284" type="1" route="4" color="1.000000,0.000000,0.000000" depart="376" />
    <vehicle id="veh_285" type="2" route="4" color="0.000000,1.000000,1.000000" depart="377" />
    <vehicle id="veh_286" type="0" route="7" color="1.000000,1.000000,0.000000" depart="378" />
    <vehicle id="veh_287" type="3" route="10" color="1.000000,0.000000,0.000000" depart="380" />
    <vehicle id="veh_288" type="1" route="1" color="0.000000,1.000000,1.000000" depart="381" />
    <vehicle id="veh_289" type="0" route="3" color="1.000000,0.000000,0.000000" depart="381" />
    <vehicle id="veh_290" type="2" route="0" color="1.000000,0.000000,0.000000" depart="382" />
    <vehicle id="veh_291" type="3" route="9" color="1.000000,0.000000,0.000000" depart="382" />
    <vehicle id="veh_292" type="1" route="4" color="0.000000,0.000000,1.000000" depart="385" />
    <vehicle id="veh_293" type="1" route="6" color="1.000000,1.000000,0.000000" depart="386" />
    <vehicle id="veh_294" type="0" route="8" color="1.000000,0.000000,0.000000" depart="387" />
    <vehicle id="veh_295" type="0" route="6" color="1.000000,0.000000,0.000000" depart="388" />
    <vehicle id="veh_296" type="3" route="9" color="0.000000,1.000000,1.000000" depart="388" />
    <vehicle id="veh_297" type="2" route="4" color="1.000000,0.000000,0.000000" depart="389" />
    <vehicle id="veh_298" type="3" route="10" color="0.000000,1.000000,0.000000" depart="390" />
    <vehicle id="veh_299" type="2" route="0" color="0.000000,0.000000,1.000000" depart="391" />
    <vehicle id="veh_300" type="0" route="11" color="1.000000,0.000000,0.000000" depart="395" />
    <vehicle id="veh_301" type="2" route="3" color="1.000000,0.000000,1.000000" depart="396" />