
            <routes>
                <vType id="0" accel="2" decel="4.5" sigma="0.5" length="5" minGap="2.5" maxSpeed="14" guiShape="passenger"/>
                <vType id="1" accel="2" decel="4.5" sigma="0.5" length="3" minGap="2.5" maxSpeed="14" guiShape="passenger"/>
                <vType id="2" accel="2" decel="4.5" sigma="0.5" length="4" minGap="2.5" maxSpeed="14" guiShape="passenger"/>
                <vType id="3" accel="2" decel="4.5" sigma="0.5" length="10" minGap="3" maxSpeed="14" guiShape="bus"/>

                <route id="0" edges="west_right north_up" />
                <route id="1" edges="west_right east_right" />
                <route id="2" edges="west_right south_down" />

                <route id="3" edges="north_down east_right" />
                <route id="4" edges="north_down south_down" />
                <route id="5" edges="north_down west_left" />

                <route id="6" edges="east_left south_down" />
                <route id="7" edges="east_left west_left" />
                <route id="8" edges="east_left north_up" />

                <route id="9" edges="south_up west_left" />
                <route id="10" edges="south_up north_up" />
                <route id="11" edges="south_up east_right" />

            
    <vehicle id="veh_0" type="2" route="1" color="0.000000,1.000000,0.000000" depart="4" />
    <vehicle id="veh_1" type="2" route="8" color="1.000000,0.000000,1.000000" depart="8" />
    <vehicle id="veh_2" type="1" route="0" color="0.000000,0.000000,1.000000" depart="17" />
    <vehicle id="veh_3" type="1" route="3" color="0.000000,1.000000,0.000000" depart="21" />
    <vehicle id="veh_4" type="2" route="10" color="1.000000,0.000000,0.000000" depart="29" />
    <vehicle id="veh_5" type="1" route="6" color="1.000000,0.000000,0.000000" depart="41" />
    <vehicle id="veh_6" type="0" route="3" color="0.000000,0.000000,1.000000" depart="42" />
    <vehicle id="veh_7" type="3" route="3" color="1.000000,1.000000,1.000000" depart="43" />
    <vehicle id="veh_8" type="1" route="4" color="1.000000,0.000000,1.000000" depart="45" />
    <vehicle id="veh_9" type="3" route="9" color="1.000000,0.000000,1.000000" depart="46" />
    <vehicle id="veh_10" type="3" route="10" color="1.000000,1.000000,0.000000" depart="51" />
    <vehicle id="veh_11" type="3" route="8" color="0.000000,1.000000,0.000000" depart="52" />
    <vehicle id="veh_12" type="0" route="6" color="1.000000,1.000000,0.000000" depart="63" />
    <vehicle id="veh_13" type="0" route="4" color="0.000000,1.000000,0.000000" depart="65" />
    <vehicle id="veh_14" type="0" route="9" color="0.000000,1.000000,1.000000" depart="70" />
    <vehicle id="veh_15" type="1" route="0" color="1.000000,0.000000,0.000000" depart="74" />
    <vehicle id="veh_16" type="2" route="7" color="0.000000,1.000000,1.000000" depart="82" />
    <vehicle id="veh_17" type="1" route="7" color="1.000000,0.000000,0.000000" depart="86" />
    <vehicle id="veh_18" type="1" route="4" color="1.000000,0.000000,0.000000" depart="92" />
    <vehicle id="veh_19" type="1" route="4" color="1.000000,0.000000,1.000000" depart="106" />
    <vehicle id="veh_20" type="3" route="11" color="0.000000,0.000000,1.000000" depart="107" />
    <vehicle id="veh_21" type="3" route="3" color="1.000000,0.000000,1.000000" depart="117" />
    <vehicle id="veh_22" type="1" route="5" color="0.000000,1.000000,1.000000" depart="124" />
    <vehicle id="veh_23" type="3" route="8" color="1.000000,1.000000,0.000000" depart="132" />
    <vehicle id="veh_24" type="1" route="11" color="1.000000,0.000000,1.000000" depart="165" />
    <vehicle id="veh_25" type="3" route="1" color="1.000000,0.000000,0.000000" depart="184" />
    <vehicle id="veh_26" type="3" route="7" color="0.000000,1.000000,0.000000" depart="189" />
    <vehicle id="veh_27" type="3" route="8" color="0.000000,1.000000,1.000000" depart="197" />
    <vehicle id="veh_28" type="0" route="7" color="1.000000,0.000000,0.000000" depart="199" />
    <vehicle id="veh_29" type="1" route="1" color="1.000000,1.000000,1.000000" depart="200" />
    <vehicle id="veh_30" type="0" route="9" color="0.000000,1.000000,0.000000" depart="202" />
    <vehicle id="veh_31" type="3" route="1" color="1.000000,1.000000,0.000000" depart="208" />
    <vehicle id="veh_32" type="1" route="2" color="1.000000,1.000000,1.000000" depart="209" />
    <vehicle id="veh_33" type="1" route="1" color="1.000000,0.000000,0.000000" depart="210" />
    <vehicle id="veh_34" type="0" route="9" color="0.000000,0.000000,1.000000" depart="211" />
    <vehicle id="veh_35" type="2" route="1" color="1.000000,0.000000,0.000000" depart="215" />
    <vehicle id="veh_36" type="0" route="3" color="0.000000,1.000000,1.000000" depart="218" />
    <vehicle id="veh_37" type="0" route="0" color="1.000000,0.000000,0.000000" depart="225" />
    <vehicle id="veh_38" type="3" route="4" color="0.000000,1.000000,0.000000" depart="230" />
    <vehicle id="veh_39" type="3" route="7" color="0.000000,1.000000,1.000000" depart="231" />
    <vehicle id="veh_40" type="2" route="9" color="1.000000,0.000000,0.000000" depart="243" />
    <vehicle id="veh_41" type="0" route="6" color="1.000000,0.000000,0.000000" depart="244" />
    <vehicle id="veh_42" type="3" route="10" color="1.000000,0.000000,0.000000" depart="245" />
    <vehicle id="veh_43" type="3" route="0" color="1.000000,1.000000,0.000000" depart="246" />
    <vehicle id="veh_44" type="3" route="3" color="0.000000,1.000000,0.000000" depart="253" />
    <vehicle id="veh_45" type="2" route="11" color="1.000000,0.000000,0.000000" depart="260" />
    <vehicle id="veh_46" type="1" route="2" color="1.000000,0.000000,1.000000" depart="262" />
    <vehicle id="veh_47" type="0" route="9" color="0.000000,1.000000,0.000000" depart="263" />
    <vehicle id="veh_48" type="0" route="7" color="1.000000,0.000000,0.000000" depart="265" />
    <vehicle id="veh_49" type="3" route="0" color="1.000000,1.000000,1.000000" depart="267" />
    <vehicle id="veh_50" type="0" route="2" color="1.000000,1.000000,0.000000" depart="272" />
    <vehicle id="veh_51" type="0" route="9" color="1.000000,1.000000,1.000000" depart="272" />
    <vehicle id="veh_52" type="0" route="3" color="1.000000,0.000000,0.000000" depart="274" />
    <vehicle id="veh_53" type="1" route="0" color="1.000000,1.000000,0.000000" depart="283" />
    <vehicle id="veh_54" type="1" route="7" color="1.000000,0.000000,0.000000" depart="288" />
    <vehicle id="veh_55" type="2" route="5" color="1.000000,0.000000,0.000000" depart="292" />
    <vehicle id="veh_56" type="1" route="10" color="1.000000,1.000000,0.000000" depart="292" />
    <vehicle id="veh_57" type="2" route="9" color="0.000000,1.000000,1.000000" depart="301" />
    <vehicle id="veh_58" type="3" route="3" color="0.000000,1.000000,0.000000" depart="311" />
    <vehicle id="veh_59" type="0" route="2" color="1.000000,1.000000,0.000000" depart="312" />
    <vehicle id="veh_60" type="2" route="7" color="1.000000,0.000000,0.000000" depart="313" />
    <vehicle id="veh_61" type="1" route="1" color="1.000000,0.000000,0.000000" depart="317" />
    <vehicle id="veh_62" type="3" route="10" color="0.000000,0.000000,1.000000" depart="331" />
    <vehicle id="veh_63" type="0" route="10" color="1.000000,0.000000,1.000000" depart="335" />
    <vehicle id="veh_64" type="0" route="6" color="1.000000,1.000000,1.000000" depart="340" />
    <vehicle id="veh_65" type="1" route="0" color="1.000000,0.000000,0.000000" depart="342" />
    <vehicle id="veh_66" type="1" route="5" color="1.000000,1.000000,1.000000" depart="346" />
    <vehicle id="veh_67" type="1" route="6" color="1.000000,0.000000,0.000000" depart="350" />
    <vehicle id="veh_68" type="0" route="1" color="0.000000,1.000000,1.000000" depart="356" />
    <vehicle id="veh_69" type="3" route="1" color="0.000000,1.000000,1.000000" depart="360" />
    <vehicle id="veh_70" type="2" route="0" color="1.000000,1.000000,0.000000" depart="370" />
    <vehicle id="veh_71" type="1" route="2" color="1.000000,0.000000,1.000000" depart="376" />
    <vehicle id="veh_72" type="0" route="4" color="1.000000,0.000000,1.000000" depart="387" />
    <vehicle id="veh_73" type="2" route="9" color="1.000000,0.000000,0.000000" depart="390" />
    <vehicle id="veh_74" type="0" route="11" color="1.000000,0.000000,1.000000" depart="398" />
    <vehicle id="veh_75" type="1" route="3" color="1.000000,1.000000,1.000000" depart="400" />
    <vehicle id="veh_76" type="0" route="11" color="1.000000,0.000000,0.000000" depart="400" />
    <vehicle id="veh_77" type="3" route="0" color="0.000000,0.000000,1.000000" depart="409" />
    <vehicle id="veh_78" type="0" route="0" color="0.000000,1.000000,0.000000" depart="423" />
    <vehicle id="veh_79" type="0" route="5" color="1.000000,1.000000,0.000000" depart="428" />
    <vehicle id="veh_80" type="3" route="4" color="0.000000,0.000000,1.000000" depart="439" />
    <vehicle id="veh_81" type="3" route="7" color="0.000000,1.000000,0.000000" depart="439" />
    <vehicle id="veh_82" type="3" route="5" color="0.000000,1.000000,1.000000" depart="441" />
    <vehicle id="veh_83" type="1" route="4" color="1.000000,0.000000,1.000000" depart="443" />
    <vehicle id="veh_84" type="0" route="5" color="1.000000,0.000000,0.000000" depart="444" />
    <vehicle id="veh_85" type="0" route="6" color="0.000000,1.000000,0.000000" depart="448" />
    <vehicle id="veh_86" type="2" route="1" color="0.000000,0.000000,1.000000" depart="450" />
    <vehicle id="veh_87" type="0" route="10" color="1.000000,0.000000,1.000000" depart="450" />
    <vehicle id="veh_88" type="3" route="4" color="1.000000,1.000000,0.000000" depart="456" />
    <vehicle id="veh_89" type="3" route="2" color="1.000000,0.000000,0.000000" depart="471" />
    <vehicle id="veh_90" type="0" route="3" color="0.000000,0.000000,1.000000" depart="486" />
    <vehicle id="veh_91" type="3" route="5" color="1.000000,0.000000,0.000000" depart="491" />
    <vehicle id="veh_92" type="3" route="9" color="0.000000,1.000000,0.000000" depart="525" />
    <vehicle id="veh_93" type="1" route="10" color="0.000000,0.000000,1.000000" depart="534" />
    <vehicle id="veh_94" type="2" route="1" color="1.000000,0.000000,1.000000" depart="535" />
    <vehicle id="veh_95" type="0" route="0" color="0.000000,1.000000,1.000000" depart="541" />
    <vehicle id="veh_96" type="0" route="10" color="1.000000,0.000000,0.000000" depart="545" />
    <vehicle id="veh_97" type="0" route="9" color="0.000000,0.000000,1.000000" depart="546" />
    <vehicle id="veh_98" type="2" route="7" color="0.000000,0.000000,1.000000" depart="569" />
    <vehicle id="veh_99" type="1" route="1" color="0.000000,1.000000,1.000000" depart="572" />
    <vehicle id="veh_100" type="0" route="7" color="0.000000,1.000000,0.000000" depart="574" />
    <vehicle id="veh_101" type="1" route="8" color="1.000000,1.000000,0.000000" depart="576" />
    <vehicle id="veh_102" type="2" route="3" color="1.000000,0.000000,0.000000" depart="577" />
    <vehicle id="veh_103" type="2" route="3" color="1.000000,1.000000,1.000000" depart="579" />
    <vehicle id="veh_104" type="0" route="0" color="1.000000,1.000000,1.000000" depart="587" />
    <vehicle id="veh_105" type="0" route="7" color="0.000000,1.000000,0.000000" depart="588" />
    <vehicle id="veh_106" type="1" route="5" color="1.000000,0.000000,1.000000" depart="593" />
    <vehicle id="veh_107" type="0" route="7" color="1.000000,0.000000,0.000000" depart="604" />
    <vehicle id="veh_108" type="1" route="11" color="1.000000,0.000000,0.000000" depart="604" />
    <vehicle id="veh_109" type="2" route="2" color="1.000000,0.000000,0.000000" depart="606" />
    <vehicle id="veh_110" type="0" route="5" color="1.000000,1.000000,1.000000" depart="611" />
    <vehicle id="veh_111" type="2" route="11" color="1.000000,1.000000,0.000000" depart="622" />
    <vehicle id="veh_112" type="3" route="8" color="1.000000,1.000000,1.000000" depart="629" />
    <vehicle id="veh_113" type="1" route="9" color="1.000000,0.000000,0.000000" depart="637" />
    <vehicle id="veh_114" type="0" route="11" color="0.000000,1.000000,1.000000" depart="649" />
    <vehicle id="veh_115" type="0" route="1" color="0.000000,0.000000,1.000000" depart="654" />
    <vehicle id="veh_116" type="1" route="10" color="1.000000,1.000000,0.000000" depart="656" />
    <vehicle id="veh_117" type="2" route="2" color="1.000000,1.000000,0.000000" depart="663" />
    <vehicle id="veh_118" type="2" route="3" color="1.000000,0.000000,0.000000" depart="664" />
    <vehicle id="veh_119" type="0" route="2" color="0.000000,1.000000,1.000000" depart="666" />
    <vehicle id="veh_120" type="3" route="11" color="1.000000,0.000000,0.000000" depart="670" />
    <vehicle id="veh_121" type="1" route="6" color="0.000000,1.000000,0.000000" depart="672" />
    <vehicle id="veh_122" type="0" route="2" color="1.000000,0.000000,1.000000" depart="681" />
    <vehicle id="veh_123" type="2" route="1" color="1.000000,0.000000,0.000000" depart="689" />
    <vehicle id="veh_124" type="3" route="2" color="1.000000,0.000000,1.000000" depart="698" />
    <vehicle id="veh_125" type="2" route="9" color="1.000000,0.000000,0.000000" depart="698" />
    <vehicle id="veh_126" type="0" route="5" color="0.000000,1.000000,1.000000" depart="701" />
    <vehicle id="veh_127" type="2" route="7" color="1.000000,1.000000,0.000000" depart="702" />
    <vehicle id="veh_128" type="2" route="3" color="1.000000,0.000000,1.000000" depart="703" />
    <vehicle id="veh_129" type="1" route="3" color="0.000000,1.000000,0.000000" depart="705" />
    <vehicle id="veh_130" type="0" route="9" color="1.000000,1.000000,0.000000" depart="716" />
    <vehicle id="veh_131" type="2" route="5" color="1.000000,0.000000,0.000000" depart="724" />
    <vehicle id="veh_132" type="2" route="8" color="1.000000,1.000000,1.000000" depart="736" />
    <vehicle id="veh_133" type="0" route="9" color="1.000000,0.000000,0.000000" depart="741" />
    <vehicle id="veh_134" type="0" route="7" color="1.000000,0.000000,0.000000" depart="746" />
    <vehicle id="veh_135" type="3" route="6" color="1.000000,0.000000,1.000000" depart="749" />
    <vehicle id="veh_136" type="0" route="11" color="1.000000,1.000000,0.000000" depart="750" />
    <vehicle id="veh_137" type="0" route="8" color="0.000000,1.000000,0.000000" depart="768" />
    <vehicle id="veh_138" type="1" route="10" color="1.000000,0.000000,0.000000" depart="770" />
    <vehicle id="veh_139" type="2" route="4" color="1.000000,0.000000,1.000000" depart="771" />
    <vehicle id="veh_140" type="1" route="1" color="1.000000,0.000000,0.000000" depart="772" />
    <vehicle id="veh_141" type="3" route="2" color="0.000000,1.000000,1.000000" depart="773" />
    <vehicle id="veh_142" type="0" route="6" color="0.000000,1.000000,0.000000" depart="775" />
    <vehicle id="veh_143" type="2" route="0" color="1.000000,1.000000,0.000000" depart="782" />
    <vehicle id="veh_144" type="0" route="8" color="1.000000,0.000000,1.000000" depart="789" />
    <vehicle id="veh_145" type="0" route="11" color="1.000000,0.000000,0.000000" depart="789" />
    <vehicle id="veh_146" type="2" route="10" color="1.000000,0.000000,1.000000" depart="793" />
    <vehicle id="veh_147" type="1" route="8" color="1.000000,1.000000,0.000000" depart="794" />
    <vehicle id="veh_148" type="0" route="1" color="1.000000,0.000000,1.000000" depart="795" />
    <vehicle id="veh_149" type="3" route="3" color="1.000000,0.000000,0.000000" depart="799" />
    <vehicle id="veh_150" type="1" route="1" color="1.000000,0.000000,1.000000" depart="824" />
    <vehicle id="veh_151" type="3" route="8" color="0.000000,0.000000,1.000000" depart="825" />
    <vehicle id="veh_152" type="3" route="8" color="1.000000,0.000000,0.000000" depart="845" />
    <vehicle id="veh_153" type="2" route="2" color="0.000000,0.000000,1.000000" depart="847" />
    <vehicle id="veh_154" type="0" route="3" color="0.000000,1.000000,0.000000" depart="851" />
    <vehicle id="veh_155" type="0" route="4" color="1.000000,1.000000,1.000000" depart="854" />
    <vehicle id="veh_156" type="1" route="10" color="0.000000,0.000000,1.000000" depart="856" />
    <vehicle id="veh_157" type="1" route="6" color="0.000000,1.000000,1.000000" depart="858" />
    <vehicle id="veh_158" type="3" route="8" color="1.000000,1.000000,1.000000" depart="860" />
    <vehicle id="veh_159" type="3" route="5" color="1.000000,1.000000,0.000000" depart="867" />
    <vehicle id="veh_160" type="2" route="6" color="0.000000,0.000000,1.000000" depart="871" />
    <vehicle id="veh_161" type="3" route="4" color="0.000000,0.000000,1.000000" depart="877" />
    <vehicle id="veh_162" type="0" route="4" color="1.000000,1.000000,0.000000" depart="878" />
    <vehicle id="veh_163" type="0" route="0" color="0.000000,0.000000,1.000000" depart="884" />
    <vehicle id="veh_164" type="1" route="2" color="0.000000,1.000000,1.000000" depart="889" />
    <vehicle id="veh_165" type="2" route="5" color="1.000000,1.000000,1.000000" depart="900" />
    <vehicle id="veh_166" type="2" route="6" color="0.000000,1.000000,1.000000" depart="901" />
    <vehicle id="veh_167" type="3" route="0" color="1.000000,0.000000,0.000000" depart="907" />
    <vehicle id="veh_168" type="2" route="7" color="0.000000,1.000000,1.000000" depart="909" />
    <vehicle id="veh_169" type="1" route="3" color="0.000000,1.000000,1.000000" depart="912" />
    <vehicle id="veh_170" type="1" route="4" color="1.000000,1.000000,0.000000" depart="914" />
    <vehicle id="veh_171" type="0" route="11" color="1.000000,0.000000,0.000000" depart="915" />
    <vehicle id="veh_172" type="0" route="0" color="1.000000,0.000000,0.000000" depart="921" />
    <vehicle id="veh_173" type="1" route="4" color="0.000000,0.000000,1.000000" depart="924" />
    <vehicle id="veh_174" type="2" route="6" color="0.000000,0.000000,1.000000" depart="925" />
    <vehicle id="veh_175" type="1" route="11" color="0.000000,1.000000,0.000000" depart="927" />
    <vehicle id="veh_176" type="2" route="3" color="1.000000,0.000000,0.000000" depart="930" />
    <vehicle id="veh_177" type="3" route="1" color="0.000000,0.000000,1.000000" depart="931" />
    <vehicle id="veh_178" type="3" route="6" color="0.000000,0.000000,1.000000" depart="931" />
    <vehicle id="veh_179" type="1" route="4" color="1.000000,0.000000,0.000000" depart="940" />
    <vehicle id="veh_180" type="3" route="6" color="0.000000,1.000000,1.000000" depart="942" />
    <vehicle id="veh_181" type="0" route="8" color="1.000000,0.000000,1.000000" depart="944" />
    <vehicle id="veh_182" type="1" route="9" color="1.000000,0.000000,0.000000" depart="945" />
    <vehicle id="veh_183" type="3" route="7" color="1.000000,1.000000,1.000000" depart="947" />
    <vehicle id="veh_184" type="1" route="6" color="1.000000,1.000000,0.000000" depart="951" />
    <vehicle id="veh_185" type="0" route="3" color="1.000000,0.000000,0.000000" depart="955" />
    <vehicle id="veh_186" type="1" route="8" color="0.000000,1.000000,1.000000" depart="957" />
    <vehicle id="veh_187" type="3" route="9" color="1.000000,1.000000,0.000000" depart="958" />
    <vehicle id="veh_188" type="0" route="4" color="1.000000,1.000000,1.000000" depart="963" />
    <vehicle id="veh_189" type="0" route="9" color="0.000000,1.000000,1.000000" depart="966" />
    <vehicle id="veh_190" type="3" route="6" color="1.000000,1.000000,0.000000" depart="967" />
    <vehicle id="veh_191" type="1" route="5" color="0.000000,1.000000,1.000000" depart="968" />
    <vehicle id="veh_192" type="1" route="10" color="0.000000,1.000000,0.000000" depart="968" />
    <vehicle id="veh_193" type="2" route="7" color="1.000000,1.000000,0.000000" depart="970" />
    <vehicle id="veh_194" type="3" route="11" color="0.000000,1.000000,0.000000" depart="970" />
    <vehicle id="veh_195" type="1" route="0" color="0.000000,1.000000,1.000000" depart="971" />
    <vehicle id="veh_196" type="0" route="1" color="1.000000,1.000000,0.000000" depart="973" />
    <vehicle id="veh_197" type="1" route="5" color="0.000000,0.000000,1.000000" depart="973" />
    <vehicle id="veh_198" type="2" route="7" color="1.000000,0.000000,0.000000" depart="977" />
    <vehicle id="veh_199" type="2" route="2" color="1.000000,0.000000,1.000000" depart="982" />
    <vehicle id="veh_200" type="0" route="11" color="1.000000,1.000000,1.000000" depart="982" />
    <vehicle id="veh_201" type="0" route="3" color="1.000000,0.000000,1.000000" depart="983" />
    <vehicle id="veh_202" type="0" route="10" color="0.000000,1.000000,0.000000" depart="988" />
    <vehicle id="veh_203" type="1" route="6" color="1.000000,1.000000,1.000000" depart="989" />
    <vehicle id="veh_204" type="3" route="6" color="1.000000,0.000000,0.000000" depart="991" />
    <vehicle id="veh_205" type="1" route="4" color="1.000000,1.000000,0.000000" depart="997" />
    <vehicle id="veh_206" type="1" route="0" color="0.000000,0.000000,1.000000" depart="998" />
    <vehicle id="veh_207" type="3" route="9" color="1.000000,0.000000,1.000000" depart="998" />
    <vehicle id="veh_208" type="3" route="9" color="0.000000,1.000000,1.000000" depart="1006" />
    <vehicle id="veh_209" type="1" route="0" color="1.000000,0.000000,1.000000" depart="1015" />
    <vehicle id="veh_210" type="1" route="10" color="1.000000,0.000000,1.000000" depart="1016" />
    <vehicle id="veh_211" type="3" route="3" color="1.000000,0.000000,0.000000" depart="1020" />
    <vehicle id="veh_212" type="2" route="4" color="0.000000,0.000000,1.000000" depart="1021" />
    <vehicle id="veh_213" type="2" route="4" color="0.000000,1.000000,0.000000" depart="1022" />
    <vehicle id="veh_214" type="2" route="11" color="1.000000,0.000000,1.000000" depart="1030" />
    <vehicle id="veh_215" type="0" route="0" color="0.000000,0.000000,1.000000" depart="1039" />
    <vehicle id="veh_216" type="0" route="5" color="0.000000,1.000000,0.000000" depart="1044" />
    <vehicle id="veh_217" type="2" route="8" color="1.000000,0.000000,0.000000" depart="1046" />
    <vehicle id="veh_218" type="1" route="11" color="1.000000,0.000000,0.000000" depart="1048" />
    <vehicle id="veh_219" type="1" route="0" color="0.000000,1.000000,0.000000" depart="1052" />
    <vehicle id="veh_220" type="3" route="9" color="1.000000,0.000000,1.000000" depart="1053" />
    <vehicle id="veh_221" type="2" route="2" color="0.000000,1.000000,1.000000" depart="1054" />
    <vehicle id="veh_222" type="3" route="11" color="1.000000,0.000000,0.000000" depart="1057" />
    <vehicle id="veh_223" type="1" route="11" color="1.000000,1.000000,1.000000" depart="1066" />
    <vehicle id="veh_224" type="1" route="3" color="1.000000,0.000000,1.000000" depart="1068" />
    <vehicle id="veh_225" type="3" route="8" color="1.000000,0.000000,1.000000" depart="1068" />
    <vehicle id="veh_226" type="1" route="11" color="1.000000,1.000000,0.000000" depart="1075" />
    <vehicle id="veh_227" type="0" route="5" color="1.000000,1.000000,1.000000" depart="1076" />
    <vehicle id="veh_228" type="1" route="8" color="1.000000,1.000000,1.000000" depart="1084" />
    <vehicle id="veh_229" type="0" route="2" color="1.000000,0.000000,0.000000" depart="1086" />
    <vehicle id="veh_230" type="0" route="0" color="0.000000,0.000000,1.000000" depart="1087" />
    <vehicle id="veh_231" type="0" route="0" color="1.000000,0.000000,0.000000" depart="1090" />
    <vehicle id="veh_232" type="1" route="6" color="0.000000,1.000000,1.000000" depart="1093" />
    <vehicle id="veh_233" type="1" route="6" color="1.000000,0.000000,1.000000" depart="1105" />
    <vehicle id="veh_234" type="3" route="1" color="1.000000,1.000000,1.000000" depart="1108" />
    <vehicle id="veh_235" type="0" route="3" color="1.000000,0.000000,1.000000" depart="1111" />
    <vehicle id="veh_236" type="2" route="2" color="1.000000,0.000000,1.000000" depart="1112" />
    <vehicle id="veh_237" type="1" route="9" color="1.000000,1.000000,0.000000" depart="1112" />
    <vehicle id="veh_238" type="0" route="0" color="1.000000,0.000000,0.000000" depart="1113" />
    <vehicle id="veh_239" type="1" route="11" color="1.000000,0.000000,0.000000" depart="1118" />
    <vehicle id="veh_240" type="2" route="10" color="1.000000,1.000000,1.000000" depart="1121" />
    <vehicle id="veh_241" type="3" route="6" color="1.000000,1.000000,0.000000" depart="1122" />
    <vehicle id="veh_242" type="2" route="5" color="0.000000,1.000000,0.000000" depart="1124" />
    <vehicle id="veh_243" type="1" route="1" color="1.000000,0.000000,0.000000" depart="1126" />
    <vehicle id="veh_244" type="1" route="3" color="1.000000,1.000000,1.000000" depart="1126" />
    <vehicle id="veh_245" type="3" route="10" color="1.000000,0.000000,0.000000" depart="1133" />
    <vehicle id="veh_246" type="3" route="3" color="1.000000,0.000000,0.000000" depart="1134" />
    <vehicle id="veh_247" type="2" route="11" color="0.000000,1.000000,1.000000" depart="1136" />
    <vehicle id="veh_248" type="1" route="2" color="1.000000,0.000000,0.000000" depart="1138" />
    <vehicle id="veh_249" type="2" route="6" color="1.000000,1.000000,0.000000" depart="1139" />
    <vehicle id="veh_250" type="2" route="9" color="1.000000,0.000000,0.000000" depart="1139" />
    <vehicle id="veh_251" type="3" route="2" color="1.000000,1.000000,1.000000" depart="1140" />
    <vehicle id="veh_252" type="0" route="8" color="0.000000,0.000000,1.000000" depart="1141" />
    <vehicle id="veh_253" type="2" route="0" color="1.000000,0.000000,0.000000" depart="1142" />
    <vehicle id="veh_254" type="3" route="7" color="0.000000,1.000000,0.000000" depart="1142" />
    <vehicle id="veh_255" type="3" route="0" color="1.000000,1.000000,0.000000" depart="1146" />
    <vehicle id="veh_256" type="2" route="7" color="1.000000,1.000000,1.000000" depart="1146" />
    <vehicle id="veh_257" type="3" route="0" color="1.000000,0.000000,0.000000" depart="1150" />
    <vehicle id="veh_258" type="0" route="2" color="0.000000,1.000000,1.000000" depart="1155" />
    <vehicle id="veh_259" type="0" route="4" color="1.000000,1.000000,0.000000" depart="1157" />
    <vehicle id="veh_260" type="1" route="6" color="1.000000,1.000000,0.000000" depart="1157" />
    <vehicle id="veh_261" type="2" route="1" color="0.000000,0.000000,1.000000" depart="1162" />
    <vehicle id="veh_262" type="3" route="3" color="0.000000,1.000000,1.000000" depart="1175" />
    <vehicle id="veh_263" type="3" route="4" color="1.000000,0.000000,0.000000" depart="1177" />
    <vehicle id="veh_264" type="2" route="6" color="0.000000,1.000000,0.000000" depart="1177" />
    <vehicle id="veh_265" type="1" route="4" color="1.000000,0.000000,1.000000" depart="1178" />
    <vehicle id="veh_266" type="2" route="0" color="0.000000,1.000000,0.000000" depart="1183" />
    <vehicle id="veh_267" type="1" route="8" color="0.000000,0.000000,1.000000" depart="1187" />
    <vehicle id="veh_268" type="3" route="1" color="0.000000,1.000000,0.000000" depart="1189" />
    <vehicle id="veh_269" type="1" route="11" color="0.000000,1.000000,1.000000" depart="1189" />
    <vehicle id="veh_270" type="0" route="1" color="0.000000,1.000000,0.000000" depart="1191" />
    <vehicle id="veh_271" type="3" route="11" color="0.000000,0.000000,1.000000" depart="1192" />
    <vehicle id="veh_272" type="0" route="7" color="1.000000,0.000000,1.000000" depart="1195" />
    <vehicle id="veh_273" type="1" route="9" color="1.000000,0.000000,0.000000" depart="1197" />
    <vehicle id="veh_274" type="1" route="11" color="1.000000,1.000000,0.000000" depart="1200" />
    <vehicle id="veh_275" type="3" route="6" color="0.000000,1.000000,0.000000" depart="1202" />
    <vehicle id="veh_276" type="2" route="0" color="1.000000,0.000000,0.000000" depart="1208" />
    <vehicle id="veh_277" type="1" route="10" color="1.000000,0.000000,0.000000" depart="1208" />
    <vehicle id="veh_278" type="2" route="1" color="1.000000,1.000000,0.000000" depart="1211" />
    <vehicle id="veh_279" type="2" route="3" color="0.000000,1.000000,1.000000" depart="1212" />
    <vehicle id="veh_280" type="2" route="4" color="0.000000,0.000000,1.000000" depart="1218" />
    <vehicle id="veh_281" type="0" route="10" color="1.000000,1.000000,1.000000" depart="1226" />
    <vehicle id="veh_282" type="1" route="2" color="0.000000,0.000000,1.000000" depart="1229" />
    <vehicle id="veh_283" type="2" route="9" color="0.000000,0.000000,1.000000" depart="1229" />
    <vehicle id="veh_284" type="0" route="5" color="1.000000,1.000000,1.000000" depart="1233" />
    <vehicle id="veh_285" type="2" route="4" color="1.000000,0.000000,1.000000" depart="1236" />
    <vehicle id="veh_286" type="0" route="4" color="1.000000,0.000000,1.000000" depart="1238" />
    <vehicle id="veh_287" type="2" route="6" color="1.000000,0.000000,0.000000" depart="1247" />
    <vehicle id="veh_288" type="2" route="6" color="1.000000,0.000000,1.000000" depart="1248" />
    <vehicle id="veh_289" type="1" route="10" color="0.000000,1.000000,1.000000" depart="1253" />
    <vehicle id="veh_290" type="1" route="1" color="1.000000,1.000000,1.000000" depart="1259" />
    <vehicle id="veh_291" type="2" route="5" color="1.000000,0.000000,0.000000" depart="1260" />
    <vehicle id="veh_292" type="2" route="11" color="1.000000,1.000000,0.000000" depart="1260" />
    <vehicle id="veh_293" type="1" route="2" color="1.000000,0.000000,0.000000" depart="1261" />
    <vehicle id="veh_294" type="0" route="2" color="0.000000,1.000000,1.000000" depart="1262" />
    <vehicle id="veh_295" type="1" route="5" color="0.000000,0.000000,1.000000" depart="1262" />
    <vehicle id="veh_296" type="2" route="4" color="1.000000,1.000000,1.000000" depart="1263" />
    <vehicle id="veh_297" type="0" route="0" color="1.000000,1.000000,0.000000" depart="1264" />
    <vehicle id="veh_298" type="3" route="11" color="0.000000,1.000000,0.000000" depart="1264" />