
			<routes>
				<vType id="0" accel="2" decel="4.5" sigma="0.5" length="5" minGap="2.5" maxSpeed="14" guiShape="passenger"/>
				<vType id="1" accel="2" decel="4.5" sigma="0.5" length="3" minGap="2.5" maxSpeed="14" guiShape="passenger"/>
				<vType id="2" accel="2" decel="4.5" sigma="0.5" length="4" minGap="2.5" maxSpeed="14" guiShape="passenger"/>
				<vType id="3" accel="2" decel="4.5" sigma="0.5" length="10" minGap="3" maxSpeed="14" guiShape="bus"/>

				<route id="0" edges="west_right north_up" />
				<route id="1" edges="west_right east_right" />
				<route id="2" edges="west_right south_down" />

				<route id="3" edges="north_down east_right" />
				<route id="4" edges="north_down south_down" />
				<route id="5" edges="north_down west_left" />

				<route id="6" edges="east_left south_down" />
				<route id="7" edges="east_left west_left" />
				<route id="8" edges="east_left north_up" />

				<route id="9" edges="south_up west_left" />
				<route id="10" edges="south_up north_up" />
				<route id="11" edges="south_up east_right" />

			
    <vehicle id="veh_0" type="2" route="0" color="0.000000,1.000000,1.000000" depart="1" />
    <vehicle id="veh_1" type="2" route="3" color="1.000000,1.000000,0.000000" depart="4" />
    <vehicle id="veh_2" type="2" route="5" color="0.000000,1.000000,1.000000" depart="5" />
    <vehicle id="veh_3" type="0" route="8" color="1.000000,1.000000,0.000000" depart="7" />
    <vehicle id="veh_4" type="0" route="10" color="0.000000,0.000000,1.000000" depart="7" />
    <vehicle id="veh_5" type="3" route="8" color="1.000000,0.000000,0.000000" depart="10" />
    <vehicle id="veh_6" type="0" route="11" color="1.000000,0.000000,0.000000" depart="10" />
    <vehicle id="veh_7" type="0" route="8" color="1.000000,1.000000,0.000000" depart="12" />
    <vehicle id="veh_8" type="0" route="2" color="1.000000,1.000000,0.000000" depart="13" />
    <vehicle id="veh_9" type="2" route="10" color="1.000000,0.000000,0.000000" depart="16" />
    <vehicle id="veh_10" type="2" route="0" color="1.000000,1.000000,0.000000" depart="18" />
    <vehicle id="veh_11" type="1" route="10" color="1.000000,1.000000,0.000000" depart="18" />
    <vehicle id="veh_12" type="2" route="1" color="1.000000,0.000000,0.000000" depart="20" />
    <vehicle id="veh_13" type="3" route="3" color="1.000000,0.000000,1.000000" depart="23" />
    <vehicle id="veh_14" type="0" route="2" color="1.000000,0.000000,0.000000" depart="24" />
    <vehicle id="veh_15" type="3" route="11" color="0.000000,0.000000,1.000000" depart="24" />
    <vehicle id="veh_16" type="2" route="8" color="1.000000,0.000000,1.000000" depart="26" />
    <vehicle id="veh_17" type="1" route="9" color="1.000000,0.000000,0.000000" depart="26" />
    <vehicle id="veh_18" type="0" route="9" color="0.000000,1.000000,0.000000" depart="29" />
    <vehicle id="veh_19" type="2" route="7" color="0.000000,0.000000,1.000000" depart="31" />
    <vehicle id="veh_20" type="2" route="9" color="1.000000,0.000000,0.000000" depart="31" />
    <vehicle id="veh_21" type="0" route="0" color="1.000000,0.000000,0.000000" depart="42" />
    <vehicle id="veh_22" type="0" route="9" color="1.000000,0.000000,1.000000" depart="42" />
    <vehicle id="veh_23" type="3" route="10" color="1.000000,0.000000,0.000000" depart="44" />
    <vehicle id="veh_24" type="0" route="11" color="0.000000,1.000000,0.000000" depart="54" />
    <vehicle id="veh_25" type="3" route="3" color="0.000000,1.000000,1.000000" depart="55" />
    <vehicle id="veh_26" type="0" route="4" color="0.000000,1.000000,1.000000" depart="56" />
    <vehicle id="veh_27" type="3" route="6" color="0.000000,1.000000,1.000000" depart="63" />
    <vehicle id="veh_28" type="3" route="2" color="1.000000,1.000000,1.000000" depart="64" />
    <vehicle id="veh_29" type="0" route="6" color="1.000000,0.000000,0.000000" depart="66" />
    <vehicle id="veh_30" type="1" route="10" color="0.000000,1.000000,1.000000" depart="67" />
    <vehicle id="veh_31" type="1" route="9" color="0.000000,1.000000,0.000000" depart="70" />
    <vehicle id="veh_32" type="3" route="4" color="0.000000,1.000000,1.000000" depart="73" />
    <vehicle id="veh_33" type="2" route="8" color="1.000000,1.000000,1.000000" depart="79" />
    <vehicle id="veh_34" type="3" route="4" color="0.000000,0.000000,1.000000" depart="85" />
    <vehicle id="veh_35" type="2" route="6" color="0.000000,1.000000,0.000000" depart="85" />
    <vehicle id="veh_36" type="2" route="10" color="1.000000,0.000000,0.000000" depart="88" />
    <vehicle id="veh_37" type="3" route="11" color="0.000000,1.000000,1.000000" depart="89" />
    <vehicle id="veh_38" type="1" route="6" color="1.000000,0.000000,1.000000" depart="95" />
    <vehicle id="veh_39" type="1" route="1" color="1.000000,1.000000,0.000000" depart="98" />
    <vehicle id="veh_40" type="1" route="7" color="0.000000,0.000000,1.000000" depart="101" />
    <vehicle id="veh_41" type="1" route="11" color="1.000000,0.000000,0.000000" depart="101" />
    <vehicle id="veh_42" type="3" route="1" color="0.000000,0.000000,1.000000" depart="104" />
    <vehicle id="veh_43" type="0" route="11" color="1.000000,1.000000,0.000000" depart="109" />
    <vehicle id="veh_44" type="0" route="3" color="0.000000,0.000000,1.000000" depart="110" />
    <vehicle id="veh_45" type="0" route="4" color="1.000000,0.000000,0.000000" depart="114" />
    <vehicle id="veh_46" type="0" route="3" color="1.000000,1.000000,0.000000" depart="116" />
    <vehicle id="veh_47" type="1" route="2" color="1.000000,1.000000,1.000000" depart="118" />
    <vehicle id="veh_48" type="2" route="3" color="1.000000,0.000000,0.000000" depart="121" />
    <vehicle id="veh_49" type="3" route="4" color="1.000000,0.000000,0.000000" depart="127" />
    <vehicle id="veh_50" type="0" route="6" color="1.000000,1.000000,0.000000" depart="131" />
    <vehicle id="veh_51" type="1" route="4" color="1.000000,1.000000,0.000000" depart="132" />
    <vehicle id="veh_52" type="2" route="3" color="0.000000,1.000000,1.000000" depart="134" />
    <vehicle id="veh_53" type="2" route="3" color="1.000000,0.000000,1.000000" depart="141" />
    <vehicle id="veh_54" type="1" route="6" color="1.000000,1.000000,0.000000" depart="149" />
    <vehicle id="veh_55" type="2" route="10" color="1.000000,0.000000,0.000000" depart="149" />
    <vehicle id="veh_56" type="1" route="7" color="1.000000,0.000000,0.000000" depart="152" />
    <vehicle id="veh_57" type="3" route="0" color="0.000000,1.000000,0.000000" depart="158" />
    <vehicle id="veh_58" type="1" route="1" color="1.000000,0.000000,0.000000" depart="160" />
    <vehicle id="veh_59" type="1" route="5" color="0.000000,1.000000,1.000000" depart="161" />
    <vehicle id="veh_60" type="2" route="8" color="1.000000,1.000000,0.000000" depart="162" />
    <vehicle id="veh_61" type="3" route="10" color="0.000000,1.000000,0.000000" depart="166" />
    <vehicle id="veh_62" type="0" route="2" color="1.000000,0.000000,0.000000" depart="174" />
    <vehicle id="veh_63" type="2" route="9" color="0.000000,1.000000,0.000000" depart="178" />
    <vehicle id="veh_64" type="0" route="0" color="0.000000,1.000000,0.000000" depart="180" />
    <vehicle id="veh_65" type="1" route="5" color="1.000000,0.000000,0.000000" depart="185" />
    <vehicle id="veh_66" type="2" route="2" color="0.000000,1.000000,1.000000" depart="187" />
    <vehicle id="veh_67" type="2" route="6" color="0.000000,1.000000,1.000000" depart="190" />
    <vehicle id="veh_68" type="3" route="1" color="1.000000,0.000000,0.000000" depart="192" />
    <vehicle id="veh_69" type="3" route="6" color="1.000000,0.000000,0.000000" depart="194" />
    <vehicle id="veh_70" type="3" route="5" color="1.000000,0.000000,1.000000" depart="196" />
    <vehicle id="veh_71" type="2" route="8" color="1.000000,0.000000,1.000000" depart="196" />
    <vehicle id="veh_72" type="0" route="10" color="0.000000,1.000000,0.000000" depart="196" />
    <vehicle id="veh_73" type="1" route="5" color="0.000000,1.000000,0.000000" depart="199" />
    <vehicle id="veh_74" type="1" route="5" color="1.000000,0.000000,0.000000" depart="202" />
    <vehicle id="veh_75" type="3" route="7" color="0.000000,0.000000,1.000000" depart="204" />
    <vehicle id="veh_76" type="1" route="3" color="1.000000,0.000000,1.000000" depart="205" />
    <vehicle id="veh_77" type="3" route="9" color="0.000000,1.000000,0.000000" depart="207" />
    <vehicle id="veh_78" type="0" route="8" color="1.000000,1.000000,0.000000" depart="212" />
    <vehicle id="veh_79" type="0" route="6" color="0.000000,1.000000,0.000000" depart="213" />
    <vehicle id="veh_80" type="3" route="7" color="0.000000,1.000000,0.000000" depart="216" />
    <vehicle id="veh_81" type="1" route="8" color="1.000000,0.000000,0.000000" depart="218" />
    <vehicle id="veh_82" type="1" route="8" color="1.000000,0.000000,0.000000" depart="221" />
    <vehicle id="veh_83" type="0" route="1" color="0.000000,1.000000,1.000000" depart="225" />
    <vehicle id="veh_84" type="0" route="2" color="0.000000,1.000000,1.000000" depart="231" />
    <vehicle id="veh_85" type="0" route="4" color="0.000000,1.000000,0.000000" depart="234" />
    <vehicle id="veh_86" type="3" route="3" color="0.000000,1.000000,0.000000" depart="235" />
    <vehicle id="veh_87" type="3" route="6" color="1.000000,1.000000,1.000000" depart="239" />
    <vehicle id="veh_88" type="2" route="9" color="1.000000,0.000000,1.000000" depart="240" />
    <vehicle id="veh_89" type="0" route="2" color="1.000000,0.000000,1.000000" depart="242" />
    <vehicle id="veh_90" type="3" route="10" color="0.000000,0.000000,1.000000" depart="244" />
    <vehicle id="veh_91" type="1" route="7" color="1.000000,1.000000,0.000000" depart="246" />
    <vehicle id="veh_92" type="3" route="11" color="1.000000,1.000000,0.000000" depart="246" />
    <vehicle id="veh_93" type="2" route="0" color="1.000000,0.000000,1.000000" depart="248" />
    <vehicle id="veh_94" type="0" route="9" color="1.000000,0.000000,1.000000" depart="249" />
    <vehicle id="veh_95" type="2" route="9" color="0.000000,0.000000,1.000000" depart="251" />
    <vehicle id="veh_96" type="0" route="9" color="1.000000,1.000000,0.000000" depart="257" />
    <vehicle id="veh_97" type="2" route="11" color="1.000000,1.000000,1.000000" depart="262" />
    <vehicle id="veh_98" type="2" route="1" color="0.000000,1.000000,0.000000" depart="265" />
    <vehicle id="veh_99" type="0" route="2" color="0.000000,1.000000,1.000000" depart="266" />
    <vehicle id="veh_100" type="1" route="5" color="1.000000,1.000000,0.000000" depart="268" />
    <vehicle id="veh_101" type="3" route="1" color="1.000000,0.000000,1.000000" depart="273" />
    <vehicle id="veh_102" type="3" route="11" color="1.000000,0.000000,0.000000" depart="273" />
    <vehicle id="veh_103" type="0" route="9" color="1.000000,0.000000,1.000000" depart="277" />
    <vehicle id="veh_104" type="2" route="5" color="1.000000,0.000000,1.000000" depart="279" />
    <vehicle id="veh_105" type="1" route="0" color="1.000000,0.000000,0.000000" depart="281" />
    <vehicle id="veh_106" type="2" route="9" color="1.000000,0.000000,0.000000" depart="283" />
    <vehicle id="veh_107" type="0" route="7" color="0.000000,0.000000,1.000000" depart="287" />
    <vehicle id="veh_108" type="3" route="5" color="0.000000,1.000000,0.000000" depart="288" />
    <vehicle id="veh_109" type="0" route="10" color="1.000000,0.000000,1.000000" depart="290" />
    <vehicle id="veh_110" type="0" route="1" color="1.000000,1.000000,0.000000" depart="291" />
    <vehicle id="veh_111" type="1" route="6" color="1.000000,1.000000,0.000000" depart="293" />
    <vehicle id="veh_112" type="3" route="10" color="1.000000,0.000000,0.000000" depart="295" />
    <vehicle id="veh_113" type="1" route="7" color="0.000000,1.000000,1.000000" depart="297" />
    <vehicle id="veh_114" type="0" route="11" color="1.000000,0.000000,0.000000" depart="297" />
    <vehicle id="veh_115" type="1" route="7" color="1.000000,1.000000,1.000000" depart="299" />
    <vehicle id="veh_116" type="3" route="11" color="1.000000,1.000000,1.000000" depart="300" />
    <vehicle id="veh_117" type="3" route="1" color="1.000000,0.000000,1.000000" depart="303" />
    <vehicle id="veh_118" type="1" route="9" color="0.000000,1.000000,1.000000" depart="304" />
    <vehicle id="veh_119" type="1" route="0" color="1.000000,0.000000,0.000000" depart="307" />
    <vehicle id="veh_120" type="3" route="4" color="1.000000,0.000000,1.000000" depart="307" />
    <vehicle id="veh_121" type="3" route="0" color="1.000000,0.000000,0.000000" depart="311" />
    <vehicle id="veh_122" type="2" route="3" color="1.000000,0.000000,1.000000" depart="313" />
    <vehicle id="veh_123" type="1" route="4" color="1.000000,0.000000,1.000000" depart="318" />
    <vehicle id="veh_124" type="3" route="1" color="0.000000,0.000000,1.000000" depart="320" />
    <vehicle id="veh_125" type="0" route="8" color="1.000000,0.000000,0.000000" depart="321" />
    <vehicle id="veh_126" type="3" route="2" color="1.000000,0.000000,1.000000" depart="322" />
    <vehicle id="veh_127" type="3" route="9" color="0.000000,0.000000,1.000000" depart="323" />
    <vehicle id="veh_128" type="1" route="1" color="1.000000,0.000000,0.000000" depart="324" />
    <vehicle id="veh_129" type="2" route="8" color="0.000000,1.000000,1.000000" depart="324" />
    <vehicle id="veh_130" type="1" route="3" color="1.000000,0.000000,0.000000" depart="325" />
    <vehicle id="veh_131" type="3" route="2" color="0.000000,1.000000,1.000000" depart="332" />
    <vehicle id="veh_132" type="0" route="6" color="1.000000,0.000000,1.000000" depart="333" />
    <vehicle id="veh_133" type="1" route="7" color="0.000000,1.000000,0.000000" depart="336" />
    <vehicle id="veh_134" type="2" route="8" color="1.000000,1.000000,1.000000" depart="337" />
    <vehicle id="veh_135" type="2" route="10" color="1.000000,0.000000,0.000000" depart="340" />
    <vehicle id="veh_136" type="3" route="4" color="1.000000,0.000000,0.000000" depart="342" />
    <vehicle id="veh_137" type="2" route="11" color="0.000000,1.000000,0.000000" depart="342" />
    <vehicle id="veh_138" type="3" route="6" color="1.000000,0.000000,0.000000" depart="345" />
    <vehicle id="veh_139" type="0" route="5" color="1.000000,1.000000,1.000000" depart="348" />
    <vehicle id="veh_140" type="2" route="4" color="0.000000,1.000000,0.000000" depart="351" />
    <vehicle id="veh_141" type="0" route="2" color="0.000000,1.000000,1.000000" depart="357" />
    <vehicle id="veh_142" type="1" route="7" color="1.000000,0.000000,0.000000" depart="357" />
    <vehicle id="veh_143" type="2" route="0" color="1.000000,0.000000,0.000000" depart="358" />
    <vehicle id="veh_144" type="1" route="3" color="1.000000,0.000000,1.000000" depart="359" />
    <vehicle id="veh_145" type="3" route="3" color="0.000000,0.000000,1.000000" depart="364" />
    <vehicle id="veh_146" type="0" route="10" color="1.000000,0.000000,0.000000" depart="369" />
    <vehicle id="veh_147" type="3" route="10" color="1.000000,0.000000,1.000000" depart="376" />
    <vehicle id="veh_148" type="1" route="3" color="1.000000,1.000000,1.000000" depart="378" />
    <vehicle id="veh_149" type="3" route="2" color="1.000000,1.000000,1.000000" depart="379" />
    <vehicle id="veh_150" type="3" route="10" color="1.000000,0.000000,1.000000" depart="382" />
    <vehicle id="veh_151" type="3" route="3" color="1.000000,0.000000,0.000000" depart="385" />
    <vehicle id="veh_152" type="2" route="3" color="0.000000,0.000000,1.000000" depart="386" />
    <vehicle id="veh_153" type="1" route="4" color="0.000000,1.000000,1.000000" depart="387" />
    <vehicle id="veh_154" type="2" route="5" color="0.000000,0.000000,1.000000" depart="389" />
    <vehicle id="veh_155" type="3" route="5" color="1.000000,0.000000,0.000000" depart="390" />
    <vehicle id="veh_156" type="0" route="1" color="1.000000,1.000000,0.000000" depart="391" />
    <vehicle id="veh_157" type="3" route="10" color="1.000000,0.000000,1.000000" depart="395" />
    <vehicle id="veh_158" type="0" route="7" color="1.000000,1.000000,0.000000" depart="404" />
    <vehicle id="veh_159" type="1" route="10" color="1.000000,0.000000,0.000000" depart="411" />
    <vehicle id="veh_160" type="2" route="6" color="1.000000,0.000000,1.000000" depart="415" />
    <vehicle id="veh_161" type="1" route="8" color="0.000000,0.000000,1.000000" depart="420" />
    <vehicle id="veh_162" type="2" route="8" color="1.000000,1.000000,1.000000" depart="423" />
    <vehicle id="veh_163" type="3" route="7" color="1.000000,0.000000,0.000000" depart="429" />
    <vehicle id="veh_164" type="2" route="5" color="0.000000,1.000000,1.000000" depart="434" />
    <vehicle id="veh_165" type="0" route="7" color="0.000000,1.000000,0.000000" depart="435" />
    <vehicle id="veh_166" type="3" route="2" color="1.000000,1.000000,1.000000" depart="436" />
    <vehicle id="veh_167" type="0" route="4" color="0.000000,1.000000,0.000000" depart="436" />
    <vehicle id="veh_168" type="1" route="6" color="1.000000,1.000000,1.000000" depart="436" />
    <vehicle id="veh_169" type="1" route="10" color="1.000000,1.000000,0.000000" depart="438" />
    <vehicle id="veh_170" type="2" route="2" color="1.000000,1.000000,1.000000" depart="439" />
    <vehicle id="veh_171" type="2" route="3" color="0.000000,1.000000,0.000000" depart="445" />
    <vehicle id="veh_172" type="2" route="5" color="0.000000,1.000000,0.000000" depart="446" />
    <vehicle id="veh_173" type="2" route="2" color="1.000000,0.000000,0.000000" depart="450" />
    <vehicle id="veh_174" type="3" route="6" color="0.000000,1.000000,0.000000" depart="453" />
    <vehicle id="veh_175" type="1" route="9" color="1.000000,1.000000,0.000000" depart="455" />
    <vehicle id="veh_176" type="1" route="2" color="1.000000,1.000000,0.000000" depart="456" />
    <vehicle id="veh_177" type="2" route="3" color="0.000000,1.000000,1.000000" depart="456" />
    <vehicle id="veh_178" type="3" route="7" color="1.000000,0.000000,1.000000" depart="457" />
    <vehicle id="veh_179" type="2" route="11" color="0.000000,0.000000,1.000000" depart="459" />
    <vehicle id="veh_180" type="0" route="7" color="1.000000,0.000000,0.000000" depart="460" />
    <vehicle id="veh_181" type="2" route="11" color="1.000000,0.000000,0.000000" depart="461" />
    <vehicle id="veh_182" type="2" route="1" color="1.000000,1.000000,0.000000" depart="466" />
    <vehicle id="veh_183" type="2" route="2" color="0.000000,1.000000,0.000000" depart="468" />
    <vehicle id="veh_184" type="3" route="11" color="0.000000,1.000000,0.000000" depart="468" />
    <vehicle id="veh_185" type="1" route="0" color="1.000000,0.000000,1.000000" depart="470" />
    <vehicle id="veh_186" type="1" route="9" color="1.000000,0.000000,0.000000" depart="470" />
    <vehicle id="veh_187" type="1" route="1" color="0.000000,1.000000,1.000000" depart="474" />
    <vehicle id="veh_188" type="2" route="0" color="1.000000,1.000000,1.000000" depart="475" />
    <vehicle id="veh_189" type="3" route="5" color="1.000000,1.000000,1.000000" depart="475" />
    <vehicle id="veh_190" type="0" route="3" color="1.000000,0.000000,0.000000" depart="480" />
    <vehicle id="veh_191" type="3" route="9" color="1.000000,1.000000,0.000000" depart="483" />
    <vehicle id="veh_192" type="2" route="4" color="1.000000,0.000000,0.000000" depart="486" />
    <vehicle id="veh_193" type="3" route="9" color="1.000000,1.000000,1.000000" depart="487" />
    <vehicle id="veh_194" type="2" route="5" color="0.000000,1.000000,1.000000" depart="488" />
    <vehicle id="veh_195" type="0" route="7" color="1.000000,0.000000,0.000000" depart="488" />
    <vehicle id="veh_196" type="3" route="3" color="1.000000,0.000000,0.000000" depart="489" />
    <vehicle id="veh_197" type="1" route="9" color="1.000000,1.000000,0.000000" depart="492" />
    <vehicle id="veh_198" type="2" route="5" color="0.000000,1.000000,0.000000" depart="494" />
    <vehicle id="veh_199" type="1" route="8" color="1.000000,0.000000,0.000000" depart="498" />
    <vehicle id="veh_200" type="2" route="1" color="1.000000,0.000000,0.000000" depart="500" />
    <vehicle id="veh_201" type="1" route="10" color="0.000000,0.000000,1.000000" depart="500" />
    <vehicle id="veh_202" type="3" route="3" color="1.000000,1.000000,0.000000" depart="505" />
    <vehicle id="veh_203" type="0" route="4" color="1.000000,0.000000,0.000000" depart="507" />
    <vehicle id="veh_204" type="2" route="11" color="1.000000,0.000000,0.000000" depart="513" />
    <vehicle id="veh_205" type="0" route="6" color="0.000000,1.000000,0.000000" depart="515" />
    <vehicle id="veh_206" type="1" route="4" color="0.000000,1.000000,1.000000" depart="517" />
    <vehicle id="veh_207" type="3" route="7" color="1.000000,0.000000,0.000000" depart="518" />
    <vehicle id="veh_208" type="2" route="10" color="1.000000,0.000000,0.000000" depart="518" />
    <vehicle id="veh_209" type="3" route="8" color="1.000000,1.000000,1.000000" depart="523" />
    <vehicle id="veh_210" type="0" route="6" color="0.000000,1.000000,1.000000" depart="526" />
    <vehicle id="veh_211" type="2" route="8" color="1.000000,0.000000,1.000000" depart="529" />
    <vehicle id="veh_212" type="2" route="11" color="0.000000,1.000000,0.000000" depart="533" />
    <vehicle id="veh_213" type="1" route="3" color="1.000000,0.000000,1.000000" depart="535" />
    <vehicle id="veh_214" type="2" route="5" color="1.000000,0.000000,1.000000" depart="536" />
    <vehicle id="veh_215" type="3" route="1" color="0.000000,1.000000,0.000000" depart="538" />
    <vehicle id="veh_216" type="1" route="6" color="0.000000,1.000000,1.000000" depart="538" />
    <vehicle id="veh_217" type="3" route="0" color="0.000000,1.000000,0.000000" depart="539" />
    <vehicle id="veh_218" type="1" route="8" color="0.000000,1.000000,1.000000" depart="540" />
    <vehicle id="veh_219" type="1" route="2" color="0.000000,1.000000,1.000000" depart="541" />
    <vehicle id="veh_220" type="1" route="7" color="1.000000,1.000000,0.000000" depart="541" />
    <vehicle id="veh_221" type="2" route="2" color="1.000000,0.000000,0.000000" depart="546" />
    <vehicle id="veh_222" type="2" route="8" color="1.000000,0.000000,0.000000" depart="547" />
    <vehicle id="veh_223" type="0" route="7" color="1.000000,1.000000,1.000000" depart="549" />
    <vehicle id="veh_224" type="3" route="11" color="0.000000,1.000000,1.000000" depart="553" />
    <vehicle id="veh_225" type="2" route="4" color="1.000000,1.000000,0.000000" depart="555" />
    <vehicle id="veh_226" type="3" route="9" color="1.000000,0.000000,0.000000" depart="556" />
    <vehicle id="veh_227" type="3" route="7" color="0.000000,1.000000,0.000000" depart="557" />
    <vehicle id="veh_228" type="0" route="1" color="0.000000,1.000000,0.000000" depart="558" />
    <vehicle id="veh_229" type="2" route="9" color="0.000000,0.000000,1.000000" depart="565" />
    <vehicle id="veh_230" type="2" route="0" color="0.000000,0.000000,1.000000" depart="567" />
    <vehicle id="veh_231" type="1" route="1" color="0.000000,0.000000,1.000000" depart="568" />
    <vehicle id="veh_232" type="1" route="3" color="0.000000,1.000000,0.000000" depart="570" />
    <vehicle id="veh_233" type="0" route="3" color="1.000000,0.000000,0.000000" depart="572" />
    <vehicle id="veh_234" type="3" route="4" color="0.000000,1.000000,1.000000" depart="573" />
    <vehicle id="veh_235" type="1" route="2" color="0.000000,1.000000,1.000000" depart="576" />
    <vehicle id="veh_236" type="1" route="10" color="1.000000,0.000000,1.000000" depart="577" />
    <vehicle id="veh_237" type="0" route="7" color="1.000000,0.000000,1.000000" depart="578" />
    <vehicle id="veh_238" type="1" route="10" color="0.000000,0.000000,1.000000" depart="581" />
    <vehicle id="veh_239" type="0" route="6" color="0.000000,1.000000,1.000000" depart="590" />
    <vehicle id="veh_240" type="0" route="5" color="1.000000,0.000000,0.000000" depart="597" />
    <vehicle id="veh_241" type="1" route="8" color="1.000000,1.000000,0.000000" depart="604" />
    <vehicle id="veh_242" type="1" route="2" color="1.000000,0.000000,0.000000" depart="605" />
    <vehicle id="veh_243" type="3" route="3" color="0.000000,1.000000,0.000000" depart="607" />
    <vehicle id="veh_244" type="0" route="1" color="1.000000,0.000000,1.000000" depart="609" />
    <vehicle id="veh_245" type="3" route="1" color="0.000000,0.000000,1.000000" depart="611" />
    <vehicle id="veh_246" type="2" route="3" color="1.000000,0.000000,1.000000" depart="611" />
    <vehicle id="veh_247" type="0" route="9" color="1.000000,0.000000,1.000000" depart="611" />
    <vehicle id="veh_248" type="0" route="0" color="1.000000,0.000000,0.000000" depart="614" />
    <vehicle id="veh_249" type="1" route="10" color="1.000000,1.000000,0.000000" depart="619" />
    <vehicle id="veh_250" type="1" route="6" color="1.000000,0.000000,0.000000" depart="621" />
    <vehicle id="veh_251" type="2" route="4" color="0.000000,1.000000,0.000000" depart="626" />
    <vehicle id="veh_252" type="0" route="7" color="1.000000,0.000000,1.000000" depart="629" />
    <vehicle id="veh_253" type="2" route="8" color="1.000000,1.000000,1.000000" depart="630" />
    <vehicle id="veh_254" type="0" route="4" color="1.000000,1.000000,1.000000" depart="633" />
    <vehicle id="veh_255" type="0" route="2" color="0.000000,1.000000,1.000000" depart="635" />
    <vehicle id="veh_256" type="2" route="6" color="0.000000,1.000000,0.000000" depart="635" />
    <vehicle id="veh_257" type="3" route="10" color="0.000000,1.000000,0.000000" depart="635" />
    <vehicle id="veh_258" type="1" route="5" color="0.000000,1.000000,1.000000" depart="641" />
    <vehicle id="veh_259" type="2" route="8" color="1.000000,1.000000,1.000000" depart="643" />
    <vehicle id="veh_260" type="0" route="3" color="0.000000,1.000000,0.000000" depart="644" />
    <vehicle id="veh_261" type="1" route="7" color="0.000000,1.000000,0.000000" depart="644" />
    <vehicle id="veh_262" type="0" route="2" color="0.000000,1.000000,1.000000" depart="646" />
    <vehicle id="veh_263" type="0" route="7" color="1.000000,0.000000,0.000000" depart="652" />
    <vehicle id="veh_264" type="2" route="5" color="1.000000,0.000000,1.000000" depart="653" />
    <vehicle id="veh_265" type="3" route="7" color="0.000000,0.000000,1.000000" depart="657" />
    <vehicle id="veh_266" type="0" route="6" color="1.000000,0.000000,0.000000" depart="658" />
    <vehicle id="veh_267" type="0" route="5" color="0.000000,0.000000,1.000000" depart="660" />
    <vehicle id="veh_268" type="1" route="5" color="1.000000,0.000000,0.000000" depart="663" />
    <vehicle id="veh_269" type="3" route="3" color="1.000000,1.000000,0.000000" depart="669" />
    <vehicle id="veh_270" type="0" route="0" color="0.000000,1.000000,1.000000" depart="672" />
    <vehicle id="veh_271" type="0" route="4" color="0.000000,1.000000,1.000000" depart="676" />
    <vehicle id="veh_272" type="3" route="9" color="1.000000,0.000000,1.000000" depart="678" />
    <vehicle id="veh_273" type="0" route="2" color="1.000000,0.000000,0.000000" depart="681" />
    <vehicle id="veh_274" type="0" route="8" color="1.000000,0.000000,0.000000" depart="682" />
    <vehicle id="veh_275" type="3" route="4" color="0.000000,1.000000,0.000000" depart="684" />
    <vehicle id="veh_276" type="2" route="10" color="1.000000,0.000000,0.000000" depart="685" />
    <vehicle id="veh_277" type="1" route="2" color="1.000000,1.000000,1.000000" depart="686" />
    <vehicle id="veh_278" type="2" route="8" color="1.000000,1.000000,1.000000" depart="689" />
    <vehicle id="veh_279" type="3" route="2" color="0.000000,1.000000,0.000000" depart="693" />
    <vehicle id="veh_280" type="1" route="0" color="1.000000,0.000000,1.000000" depart="696" />
    <vehicle id="veh_281" type="1" route="10" color="1.000000,0.000000,0.000000" depart="697" />
    <vehicle id="veh_282" type="2" route="8" color="1.000000,1.000000,0.000000" depart="700" />
    <vehicle id="veh_283" type="2" route="0" color="1.000000,1.000000,0.000000" depart="702" />
    <vehicle id="veh_284" type="0" route="1" color="1.000000,0.000000,0.000000" depart="706" />
    <vehicle id="veh_285" type="3" route="7" color="0.000000,0.000000,1.000000" depart="707" />
    <vehicle id="veh_286" type="3" route="10" color="1.000000,1.000000,0.000000" depart="709" />
    <vehicle id="veh_287" type="3" route="1" color="1.000000,0.000000,0.000000" depart="713" />
    <vehicle id="veh_288" type="2" route="11" color="0.000000,1.000000,0.000000" depart="713" />
    <vehicle id="veh_289" type="0" route="1" color="1.000000,1.000000,1.000000" depart="715" />
    <vehicle id="veh_290" type="2" route="6" color="1.000000,0.000000,0.000000" depart="715" />
    <vehicle id="veh_291" type="3" route="6" color="1.000000,1.000000,0.000000" depart="716" />
    <vehicle id="veh_292" type="2" route="6" color="0.000000,1.000000,1.000000" depart="719" />
    <vehicle id="veh_293" type="3" route="4" color="0.000000,0.000000,1.000000" depart="723" />
    <vehicle id="veh_294" type="0" route="7" color="1.000000,0.000000,0.000000" depart="723" />
    <vehicle id="veh_295" type="2" route="1" color="0.000000,0.000000,1.000000" depart="725" />
    <vehicle id="veh_296" type="1" route="6" color="1.000000,0.000000,1.000000" depart="727" />
    <vehicle id="veh_297" type="0" route="10" color="0.000000,0.000000,1.000000" depart="729" />
    <vehicle id="veh_298" type="1" route="1" color="0.000000,1.000000,0.000000" depart="730" />
    <vehicle id="veh_299" type="0" route="7" color="1.000000,0.000000,1.000000" depart="731" />
    <vehicle id="veh_300" type="1" route="9" color="1.000000,1.000000,0.000000" depart="731" />
    <vehicle id="veh_301" type="0" route="5" color="1.000000,1.000000,0.000000" depart="733" />