
			<routes>
				<vType id="0" accel="2" decel="4.5" sigma="0.5" length="5" minGap="2.5" maxSpeed="14" guiShape="passenger"/>
				<vType id="1" accel="2" decel="4.5" sigma="0.5" length="3" minGap="2.5" maxSpeed="14" guiShape="passenger"/>
				<vType id="2" accel="2" decel="4.5" sigma="0.5" length="4" minGap="2.5" maxSpeed="14" guiShape="passenger"/>
				<vType id="3" accel="2" decel="4.5" sigma="0.5" length="10" minGap="3" maxSpeed="14" guiShape="bus"/>

				<route id="0" edges="west_right north_up" />
				<route id="1" edges="west_right east_right" />
				<route id="2" edges="west_right south_down" />

				<route id="3" edges="north_down east_right" />
				<route id="4" edges="north_down south_down" />
				<route id="5" edges="north_down west_left" />

				<route id="6" edges="east_left south_down" />
				<route id="7" edges="east_left west_left" />
				<route id="8" edges="east_left north_up" />

				<route id="9" edges="south_up west_left" />
				<route id="10" edges="south_up north_up" />
				<route id="11" edges="south_up east_right" />

			
    <vehicle id="veh_0" type="1" route="3" color="0.000000,1.000000,0.000000" depart="1" />
    <vehicle id="veh_1" type="1" route="7" color="1.000000,1.000000,0.000000" depart="1" />
    <vehicle id="veh_2" type="3" route="11" color="1.000000,0.000000,0.000000" depart="1" />
    <vehicle id="veh_3" type="3" route="6" color="0.000000,1.000000,0.000000" depart="2" />
    <vehicle id="veh_4" type="1" route="6" color="1.000000,0.000000,0.000000" depart="3" />
    <vehicle id="veh_5" type="3" route="2" color="1.000000,1.000000,0.000000" depart="4" />
    <vehicle id="veh_6" type="2" route="3" color="1.000000,1.000000,0.000000" depart="9" />
    <vehicle id="veh_7" type="0" route="11" color="1.000000,0.000000,1.000000" depart="10" />
    <vehicle id="veh_8" type="0" route="4" color="1.000000,0.000000,0.000000" depart="19" />
    <vehicle id="veh_9" type="0" route="5" color="0.000000,1.000000,1.000000" depart="21" />
    <vehicle id="veh_10" type="2" route="11" color="0.000000,1.000000,0.000000" depart="24" />
    <vehicle id="veh_11" type="1" route="2" color="1.000000,0.000000,0.000000" depart="25" />
    <vehicle id="veh_12" type="0" route="6" color="1.000000,1.000000,0.000000" depart="33" />
    <vehicle id="veh_13" type="3" route="8" color="0.000000,0.000000,1.000000" depart="34" />
    <vehicle id="veh_14" type="2" route="4" color="0.000000,1.000000,0.000000" depart="36" />
    <vehicle id="veh_15" type="3" route="5" color="1.000000,0.000000,0.000000" depart="42" />
    <vehicle id="veh_16" type="1" route="0" color="1.000000,1.000000,0.000000" depart="67" />
    <vehicle id="veh_17" type="3" route="9" color="1.000000,1.000000,0.000000" depart="70" />
    <vehicle id="veh_18" type="1" route="4" color="1.000000,0.000000,0.000000" depart="78" />
    <vehicle id="veh_19" type="0" route="4" color="0.000000,0.000000,1.000000" depart="80" />
    <vehicle id="veh_20" type="3" route="2" color="0.000000,1.000000,1.000000" depart="81" />
    <vehicle id="veh_21" type="0" route="2" color="1.000000,1.000000,1.000000" depart="91" />
    <vehicle id="veh_22" type="3" route="0" color="0.000000,1.000000,0.000000" depart="96" />
    <vehicle id="veh_23" type="3" route="9" color="0.000000,1.000000,0.000000" depart="99" />
    <vehicle id="veh_24" type="2" route="0" color="1.000000,0.000000,0.000000" depart="111" />
    <vehicle id="veh_25" type="3" route="4" color="1.000000,0.000000,1.000000" depart="120" />
    <vehicle id="veh_26" type="3" route="8" color="0.000000,0.000000,1.000000" depart="122" />
    <vehicle id="veh_27" type="2" route="11" color="1.000000,0.000000,0.000000" depart="122" />
    <vehicle id="veh_28" type="3" route="7" color="0.000000,1.000000,0.000000" depart="123" />
    <vehicle id="veh_29" type="3" route="11" color="1.000000,1.000000,1.000000" depart="125" />
    <vehicle id="veh_30" type="0" route="4" color="1.000000,1.000000,1.000000" depart="127" />
    <vehicle id="veh_31" type="3" route="8" color="0.000000,1.000000,0.000000" depart="127" />
    <vehicle id="veh_32" type="1" route="3" color="0.000000,0.000000,1.000000" depart="132" />
    <vehicle id="veh_33" type="3" route="11" color="0.000000,1.000000,0.000000" depart="134" />
    <vehicle id="veh_34" type="3" route="0" color="0.000000,1.000000,0.000000" depart="144" />
    <vehicle id="veh_35" type="2" route="8" color="1.000000,0.000000,0.000000" depart="148" />
    <vehicle id="veh_36" type="3" route="4" color="1.000000,0.000000,0.000000" depart="150" />
    <vehicle id="veh_37" type="2" route="2" color="1.000000,1.000000,1.000000" depart="156" />
    <vehicle id="veh_38" type="1" route="4" color="0.000000,0.000000,1.000000" depart="157" />
    <vehicle id="veh_39" type="2" route="1" color="0.000000,1.000000,0.000000" depart="160" />
    <vehicle id="veh_40" type="3" route="1" color="0.000000,1.000000,0.000000" depart="167" />
    <vehicle id="veh_41" type="0" route="3" color="1.000000,1.000000,0.000000" depart="170" />
    <vehicle id="veh_42" type="2" route="3" color="1.000000,0.000000,0.000000" depart="172" />
    <vehicle id="veh_43" type="3" route="2" color="1.000000,1.000000,1.000000" depart="180" />
    <vehicle id="veh_44" type="3" route="1" color="1.000000,0.000000,0.000000" depart="187" />
    <vehicle id="veh_45" type="0" route="8" color="1.000000,1.000000,1.000000" depart="189" />
    <vehicle id="veh_46" type="2" route="6" color="1.000000,0.000000,0.000000" depart="192" />
    <vehicle id="veh_47" type="3" route="11" color="1.000000,1.000000,0.000000" depart="192" />
    <vehicle id="veh_48" type="0" route="0" color="1.000000,0.000000,1.000000" depart="210" />
    <vehicle id="veh_49" type="3" route="3" color="1.000000,0.000000,1.000000" depart="226" />
    <vehicle id="veh_50" type="0" route="9" color="1.000000,1.000000,1.000000" depart="226" />
    <vehicle id="veh_51" type="1" route="1" color="1.000000,1.000000,0.000000" depart="227" />
    <vehicle id="veh_52" type="1" route="10" color="0.000000,1.000000,0.000000" depart="228" />
    <vehicle id="veh_53" type="3" route="4" color="1.000000,1.000000,1.000000" depart="232" />
    <vehicle id="veh_54" type="1" route="7" color="1.000000,0.000000,0.000000" depart="236" />
    <vehicle id="veh_55" type="1" route="1" color="1.000000,0.000000,0.000000" depart="241" />
    <vehicle id="veh_56" type="1" route="2" color="1.000000,0.000000,1.000000" depart="242" />
    <vehicle id="veh_57" type="0" route="8" color="0.000000,1.000000,0.000000" depart="243" />
    <vehicle id="veh_58" type="1" route="11" color="1.000000,0.000000,1.000000" depart="250" />
    <vehicle id="veh_59" type="1" route="7" color="1.000000,1.000000,1.000000" depart="253" />
    <vehicle id="veh_60" type="0" route="7" color="1.000000,0.000000,0.000000" depart="257" />
    <vehicle id="veh_61" type="1" route="9" color="0.000000,0.000000,1.000000" depart="257" />
    <vehicle id="veh_62" type="0" route="10" color="1.000000,0.000000,0.000000" depart="258" />
    <vehicle id="veh_63" type="3" route="11" color="0.000000,0.000000,1.000000" depart="259" />
    <vehicle id="veh_64" type="0" route="0" color="1.000000,1.000000,1.000000" depart="265" />
    <vehicle id="veh_65" type="1" route="9" color="0.000000,1.000000,0.000000" depart="266" />
    <vehicle id="veh_66" type="2" route="6" color="1.000000,1.000000,0.000000" depart="270" />
    <vehicle id="veh_67" type="1" route="3" color="0.000000,1.000000,0.000000" depart="272" />
    <vehicle id="veh_68" type="1" route="5" color="0.000000,1.000000,0.000000" depart="281" />
    <vehicle id="veh_69" type="2" route="11" color="0.000000,0.000000,1.000000" depart="281" />
    <vehicle id="veh_70" type="0" route="4" color="1.000000,1.000000,0.000000" depart="283" />
    <vehicle id="veh_71" type="1" route="7" color="0.000000,1.000000,1.000000" depart="289" />
    <vehicle id="veh_72" type="0" route="11" color="1.000000,0.000000,1.000000" depart="290" />
    <vehicle id="veh_73" type="3" route="8" color="1.000000,1.000000,1.000000" depart="291" />
    <vehicle id="veh_74" type="2" route="6" color="1.000000,1.000000,0.000000" depart="296" />
    <vehicle id="veh_75" type="1" route="7" color="1.000000,0.000000,0.000000" depart="297" />
    <vehicle id="veh_76" type="3" route="4" color="1.000000,0.000000,1.000000" depart="299" />
    <vehicle id="veh_77" type="0" route="11" color="0.000000,1.000000,1.000000" depart="303" />
    <vehicle id="veh_78" type="3" route="8" color="1.000000,0.000000,0.000000" depart="305" />
    <vehicle id="veh_79" type="3" route="5" color="0.000000,0.000000,1.000000" depart="317" />
    <vehicle id="veh_80" type="1" route="6" color="1.000000,1.000000,0.000000" depart="324" />
    <vehicle id="veh_81" type="1" route="10" color="1.000000,1.000000,0.000000" depart="330" />
    <vehicle id="veh_82" type="2" route="8" color="0.000000,1.000000,0.000000" depart="336" />
    <vehicle id="veh_83" type="3" route="9" color="0.000000,1.000000,0.000000" depart="349" />
    <vehicle id="veh_84" type="1" route="0" color="0.000000,1.000000,1.000000" depart="351" />
    <vehicle id="veh_85" type="1" route="10" color="0.000000,0.000000,1.000000" depart="354" />
    <vehicle id="veh_86" type="3" route="7" color="0.000000,1.000000,0.000000" depart="355" />
    <vehicle id="veh_87" type="1" route="11" color="1.000000,1.000000,0.000000" depart="388" />
    <vehicle id="veh_88" type="1" route="0" color="1.000000,0.000000,1.000000" depart="389" />
    <vehicle id="veh_89" type="1" route="7" color="0.000000,1.000000,0.000000" depart="396" />
    <vehicle id="veh_90" type="1" route="3" color="1.000000,0.000000,0.000000" depart="404" />
    <vehicle id="veh_91" type="1" route="3" color="1.000000,1.000000,0.000000" depart="407" />
    <vehicle id="veh_92" type="2" route="1" color="1.000000,1.000000,0.000000" depart="420" />
    <vehicle id="veh_93" type="3" route="11" color="1.000000,0.000000,0.000000" depart="422" />
    <vehicle id="veh_94" type="0" route="10" color="0.000000,1.000000,0.000000" depart="429" />
    <vehicle id="veh_95" type="2" route="9" color="0.000000,1.000000,1.000000" depart="434" />
    <vehicle id="veh_96" type="2" route="9" color="0.000000,1.000000,1.000000" depart="440" />
    <vehicle id="veh_97" type="0" route="10" color="1.000000,0.000000,0.000000" depart="442" />
    <vehicle id="veh_98" type="2" route="6" color="1.000000,1.000000,0.000000" depart="452" />
    <vehicle id="veh_99" type="0" route="6" color="1.000000,1.000000,0.000000" depart="461" />
    <vehicle id="veh_100" type="0" route="9" color="0.000000,1.000000,1.000000" depart="462" />
    <vehicle id="veh_101" type="0" route="11" color="0.000000,1.000000,0.000000" depart="464" />
    <vehicle id="veh_102" type="1" route="10" color="0.000000,1.000000,0.000000" depart="465" />
    <vehicle id="veh_103" type="1" route="3" color="0.000000,1.000000,0.000000" depart="486" />
    <vehicle id="veh_104" type="1" route="2" color="0.000000,1.000000,0.000000" depart="489" />
    <vehicle id="veh_105" type="0" route="11" color="0.000000,0.000000,1.000000" depart="489" />
    <vehicle id="veh_106" type="0" route="7" color="1.000000,1.000000,1.000000" depart="509" />
    <vehicle id="veh_107" type="2" route="2" color="1.000000,0.000000,0.000000" depart="510" />
    <vehicle id="veh_108" type="0" route="7" color="0.000000,0.000000,1.000000" depart="518" />
    <vehicle id="veh_109" type="1" route="11" color="0.000000,1.000000,0.000000" depart="521" />
    <vehicle id="veh_110" type="2" route="8" color="1.000000,1.000000,1.000000" depart="527" />
    <vehicle id="veh_111" type="0" route="11" color="1.000000,0.000000,0.000000" depart="534" />
    <vehicle id="veh_112" type="0" route="6" color="1.000000,1.000000,0.000000" depart="536" />
    <vehicle id="veh_113" type="3" route="11" color="1.000000,0.000000,0.000000" depart="537" />
    <vehicle id="veh_114" type="1" route="3" color="1.000000,0.000000,0.000000" depart="538" />
    <vehicle id="veh_115" type="1" route="4" color="1.000000,1.000000,0.000000" depart="548" />
    <vehicle id="veh_116" type="3" route="2" color="1.000000,0.000000,0.000000" depart="550" />
    <vehicle id="veh_117" type="0" route="5" color="0.000000,1.000000,0.000000" depart="552" />
    <vehicle id="veh_118" type="1" route="7" color="1.000000,1.000000,1.000000" depart="552" />
    <vehicle id="veh_119" type="2" route="2" color="0.000000,0.000000,1.000000" depart="554" />
    <vehicle id="veh_120" type="2" route="4" color="1.000000,0.000000,1.000000" depart="554" />
    <vehicle id="veh_121" type="1" route="9" color="1.000000,0.000000,0.000000" depart="558" />
    <vehicle id="veh_122" type="3" route="7" color="1.000000,1.000000,0.000000" depart="562" />
    <vehicle id="veh_123" type="2" route="3" color="1.000000,1.000000,1.000000" depart="564" />
    <vehicle id="veh_124" type="2" route="8" color="1.000000,0.000000,0.000000" depart="573" />
    <vehicle id="veh_125" type="0" route="5" color="1.000000,1.000000,0.000000" depart="578" />
    <vehicle id="veh_126" type="0" route="4" color="1.000000,0.000000,0.000000" depart="579" />
    <vehicle id="veh_127" type="1" route="10" color="0.000000,1.000000,1.000000" depart="579" />
    <vehicle id="veh_128" type="0" route="6" color="0.000000,1.000000,1.000000" depart="583" />
    <vehicle id="veh_129" type="3" route="4" color="0.000000,1.000000,0.000000" depart="587" />
    <vehicle id="veh_130" type="0" route="11" color="1.000000,0.000000,1.000000" depart="590" />
    <vehicle id="veh_131" type="2" route="1" color="0.000000,1.000000,1.000000" depart="601" />
    <vehicle id="veh_132" type="3" route="10" color="0.000000,1.000000,0.000000" depart="602" />
    <vehicle id="veh_133" type="2" route="1" color="0.000000,1.000000,0.000000" depart="608" />
    <vehicle id="veh_134" type="2" route="5" color="1.000000,1.000000,1.000000" depart="609" />
    <vehicle id="veh_135" type="1" route="7" color="1.000000,0.000000,1.000000" depart="614" />
    <vehicle id="veh_136" type="3" route="4" color="1.000000,0.000000,0.000000" depart="618" />
    <vehicle id="veh_137" type="2" route="7" color="0.000000,1.000000,0.000000" depart="623" />
    <vehicle id="veh_138" type="2" route="8" color="0.000000,1.000000,0.000000" depart="624" />
    <vehicle id="veh_139" type="2" route="10" color="0.000000,1.000000,1.000000" depart="627" />
    <vehicle id="veh_140" type="3" route="4" color="1.000000,0.000000,0.000000" depart="642" />
    <vehicle id="veh_141" type="3" route="4" color="0.000000,1.000000,1.000000" depart="645" />
    <vehicle id="veh_142" type="2" route="3" color="1.000000,1.000000,1.000000" depart="646" />
    <vehicle id="veh_143" type="1" route="1" color="0.000000,1.000000,1.000000" depart="652" />
    <vehicle id="veh_144" type="1" route="2" color="1.000000,1.000000,0.000000" depart="654" />
    <vehicle id="veh_145" type="1" route="0" color="0.000000,1.000000,1.000000" depart="667" />
    <vehicle id="veh_146" type="1" route="6" color="0.000000,0.000000,1.000000" depart="670" />
    <vehicle id="veh_147" type="3" route="0" color="1.000000,0.000000,0.000000" depart="675" />
    <vehicle id="veh_148" type="0" route="6" color="1.000000,0.000000,1.000000" depart="683" />
    <vehicle id="veh_149" type="2" route="3" color="1.000000,1.000000,0.000000" depart="689" />
    <vehicle id="veh_150" type="3" route="0" color="1.000000,1.000000,1.000000" depart="690" />
    <vehicle id="veh_151" type="0" route="6" color="0.000000,1.000000,0.000000" depart="690" />
    <vehicle id="veh_152" type="1" route="8" color="1.000000,0.000000,0.000000" depart="691" />
    <vehicle id="veh_153" type="1" route="8" color="1.000000,0.000000,0.000000" depart="708" />
    <vehicle id="veh_154" type="2" route="4" color="1.000000,1.000000,0.000000" depart="718" />
    <vehicle id="veh_155" type="2" route="5" color="0.000000,0.000000,1.000000" depart="724" />
    <vehicle id="veh_156" type="0" route="8" color="1.000000,1.000000,0.000000" depart="724" />
    <vehicle id="veh_157" type="3" route="2" color="1.000000,0.000000,0.000000" depart="725" />
    <vehicle id="veh_158" type="1" route="10" color="0.000000,1.000000,1.000000" depart="735" />
    <vehicle id="veh_159" type="3" route="2" color="1.000000,0.000000,0.000000" depart="738" />
    <vehicle id="veh_160" type="3" route="1" color="1.000000,0.000000,1.000000" depart="749" />
    <vehicle id="veh_161" type="3" route="3" color="1.000000,1.000000,1.000000" depart="751" />
    <vehicle id="veh_162" type="1" route="7" color="0.000000,1.000000,1.000000" depart="751" />
    <vehicle id="veh_163" type="1" route="9" color="0.000000,1.000000,1.000000" depart="753" />
    <vehicle id="veh_164" type="0" route="6" color="0.000000,1.000000,0.000000" depart="754" />
    <vehicle id="veh_165" type="2" route="6" color="1.000000,1.000000,1.000000" depart="759" />
    <vehicle id="veh_166" type="0" route="8" color="1.000000,1.000000,1.000000" depart="765" />
    <vehicle id="veh_167" type="3" route="8" color="1.000000,1.000000,1.000000" depart="767" />
    <vehicle id="veh_168" type="2" route="7" color="0.000000,0.000000,1.000000" depart="769" />
    <vehicle id="veh_169" type="3" route="2" color="0.000000,1.000000,0.000000" depart="770" />
    <vehicle id="veh_170" type="3" route="2" color="0.000000,0.000000,1.000000" depart="775" />
    <vehicle id="veh_171" type="0" route="3" color="0.000000,0.000000,1.000000" depart="777" />
    <vehicle id="veh_172" type="1" route="8" color="1.000000,1.000000,1.000000" depart="781" />
    <vehicle id="veh_173" type="2" route="3" color="1.000000,1.000000,1.000000" depart="791" />
    <vehicle id="veh_174" type="2" route="6" color="0.000000,1.000000,0.000000" depart="793" />
    <vehicle id="veh_175" type="2" route="6" color="1.000000,0.000000,0.000000" depart="795" />
    <vehicle id="veh_176" type="2" route="2" color="1.000000,0.000000,0.000000" depart="801" />
    <vehicle id="veh_177" type="0" route="8" color="0.000000,0.000000,1.000000" depart="803" />
    <vehicle id="veh_178" type="3" route="9" color="0.000000,0.000000,1.000000" depart="807" />
    <vehicle id="veh_179" type="0" route="11" color="1.000000,0.000000,0.000000" depart="815" />
    <vehicle id="veh_180" type="0" route="4" color="1.000000,0.000000,0.000000" depart="817" />
    <vehicle id="veh_181" type="0" route="0" color="1.000000,0.000000,0.000000" depart="829" />
    <vehicle id="veh_182" type="2" route="10" color="0.000000,1.000000,1.000000" depart="829" />
    <vehicle id="veh_183" type="2" route="9" color="0.000000,0.000000,1.000000" depart="830" />
    <vehicle id="veh_184" type="0" route="10" color="0.000000,1.000000,1.000000" depart="832" />
    <vehicle id="veh_185" type="0" route="6" color="1.000000,1.000000,1.000000" depart="834" />
    <vehicle id="veh_186" type="2" route="11" color="1.000000,1.000000,1.000000" depart="841" />
    <vehicle id="veh_187" type="2" route="10" color="0.000000,1.000000,1.000000" depart="851" />
    <vehicle id="veh_188" type="3" route="8" color="1.000000,1.000000,1.000000" depart="857" />
    <vehicle id="veh_189" type="3" route="6" color="1.000000,1.000000,0.000000" depart="875" />
    <vehicle id="veh_190" type="1" route="7" color="0.000000,0.000000,1.000000" depart="877" />
    <vehicle id="veh_191" type="3" route="4" color="1.000000,0.000000,0.000000" depart="886" />
    <vehicle id="veh_192" type="3" route="4" color="1.000000,0.000000,0.000000" depart="888" />
    <vehicle id="veh_193" type="3" route="4" color="0.000000,1.000000,1.000000" depart="890" />
    <vehicle id="veh_194" type="2" route="7" color="0.000000,1.000000,0.000000" depart="897" />
    <vehicle id="veh_195" type="2" route="8" color="0.000000,1.000000,1.000000" depart="898" />
    <vehicle id="veh_196" type="3" route="3" color="0.000000,1.000000,1.000000" depart="900" />
    <vehicle id="veh_197" type="3" route="9" color="1.000000,1.000000,1.000000" depart="901" />
    <vehicle id="veh_198" type="0" route="9" color="0.000000,1.000000,1.000000" depart="902" />
    <vehicle id="veh_199" type="0" route="10" color="1.000000,0.000000,0.000000" depart="905" />
    <vehicle id="veh_200" type="3" route="5" color="1.000000,0.000000,0.000000" depart="906" />
    <vehicle id="veh_201" type="0" route="11" color="0.000000,1.000000,0.000000" depart="906" />
    <vehicle id="veh_202" type="2" route="2" color="1.000000,0.000000,0.000000" depart="909" />
    <vehicle id="veh_203" type="3" route="1" color="1.000000,0.000000,0.000000" depart="921" />
    <vehicle id="veh_204" type="0" route="9" color="1.000000,1.000000,1.000000" depart="922" />
    <vehicle id="veh_205" type="3" route="11" color="1.000000,0.000000,0.000000" depart="929" />
    <vehicle id="veh_206" type="0" route="8" color="1.000000,0.000000,0.000000" depart="934" />
    <vehicle id="veh_207" type="1" route="1" color="1.000000,0.000000,0.000000" depart="938" />
    <vehicle id="veh_208" type="0" route="0" color="0.000000,1.000000,0.000000" depart="941" />
    <vehicle id="veh_209" type="2" route="5" color="0.000000,1.000000,0.000000" depart="942" />
    <vehicle id="veh_210" type="0" route="7" color="0.000000,0.000000,1.000000" depart="947" />
    <vehicle id="veh_211" type="1" route="6" color="1.000000,0.000000,1.000000" depart="949" />
    <vehicle id="veh_212" type="0" route="3" color="1.000000,0.000000,0.000000" depart="957" />
    <vehicle id="veh_213" type="3" route="7" color="0.000000,0.000000,1.000000" depart="958" />
    <vehicle id="veh_214" type="2" route="9" color="1.000000,0.000000,0.000000" depart="958" />
    <vehicle id="veh_215" type="0" route="9" color="0.000000,1.000000,1.000000" depart="964" />
    <vehicle id="veh_216" type="3" route="6" color="1.000000,0.000000,1.000000" depart="967" />
    <vehicle id="veh_217" type="0" route="0" color="1.000000,0.000000,0.000000" depart="968" />
    <vehicle id="veh_218" type="3" route="3" color="0.000000,1.000000,1.000000" depart="974" />
    <vehicle id="veh_219" type="3" route="7" color="1.000000,1.000000,0.000000" depart="977" />
    <vehicle id="veh_220" type="0" route="9" color="1.000000,0.000000,0.000000" depart="982" />
    <vehicle id="veh_221" type="1" route="4" color="1.000000,0.000000,1.000000" depart="983" />
    <vehicle id="veh_222" type="3" route="0" color="1.000000,1.000000,1.000000" depart="984" />
    <vehicle id="veh_223" type="2" route="11" color="1.000000,1.000000,0.000000" depart="985" />
    <vehicle id="veh_224" type="1" route="6" color="0.000000,0.000000,1.000000" depart="997" />
    <vehicle id="veh_225" type="2" route="4" color="1.000000,0.000000,0.000000" depart="1006" />
    <vehicle id="veh_226" type="3" route="1" color="1.000000,0.000000,0.000000" depart="1008" />
    <vehicle id="veh_227" type="1" route="10" color="0.000000,1.000000,0.000000" depart="1008" />
    <vehicle id="veh_228" type="3" route="8" color="1.000000,0.000000,1.000000" depart="1011" />
    <vehicle id="veh_229" type="1" route="10" color="0.000000,1.000000,1.000000" depart="1018" />
    <vehicle id="veh_230" type="2" route="11" color="0.000000,1.000000,1.000000" depart="1019" />
    <vehicle id="veh_231" type="3" route="11" color="0.000000,0.000000,1.000000" depart="1034" />
    <vehicle id="veh_232" type="0" route="8" color="1.000000,1.000000,1.000000" depart="1036" />
    <vehicle id="veh_233" type="1" route="11" color="1.000000,1.000000,0.000000" depart="1037" />
    <vehicle id="veh_234" type="0" route="3" color="1.000000,1.000000,0.000000" depart="1040" />
    <vehicle id="veh_235" type="1" route="10" color="0.000000,1.000000,0.000000" depart="1042" />
    <vehicle id="veh_236" type="3" route="6" color="1.000000,1.000000,0.000000" depart="1047" />
    <vehicle id="veh_237" type="3" route="11" color="1.000000,0.000000,0.000000" depart="1058" />
    <vehicle id="veh_238" type="1" route="3" color="1.000000,0.000000,0.000000" depart="1059" />
    <vehicle id="veh_239" type="2" route="11" color="1.000000,0.000000,1.000000" depart="1062" />
    <vehicle id="veh_240" type="2" route="4" color="1.000000,1.000000,0.000000" depart="1070" />
    <vehicle id="veh_241" type="0" route="9" color="0.000000,1.000000,1.000000" depart="1074" />
    <vehicle id="veh_242" type="2" route="3" color="1.000000,0.000000,0.000000" depart="1086" />
    <vehicle id="veh_243" type="0" route="2" color="1.000000,0.000000,1.000000" depart="1088" />
    <vehicle id="veh_244" type="3" route="2" color="1.000000,0.000000,0.000000" depart="1091" />
    <vehicle id="veh_245" type="2" route="1" color="1.000000,1.000000,1.000000" depart="1094" />
    <vehicle id="veh_246" type="3" route="5" color="0.000000,0.000000,1.000000" depart="1094" />
    <vehicle id="veh_247" type="2" route="0" color="1.000000,1.000000,0.000000" depart="1107" />
    <vehicle id="veh_248" type="0" route="9" color="1.000000,0.000000,1.000000" depart="1110" />
    <vehicle id="veh_249" type="0" route="10" color="0.000000,1.000000,1.000000" depart="1111" />
    <vehicle id="veh_250" type="3" route="9" color="0.000000,1.000000,1.000000" depart="1118" />
    <vehicle id="veh_251" type="3" route="11" color="1.000000,0.000000,0.000000" depart="1122" />
    <vehicle id="veh_252" type="0" route="0" color="0.000000,1.000000,0.000000" depart="1137" />
    <vehicle id="veh_253" type="0" route="8" color="1.000000,1.000000,1.000000" depart="1146" />
    <vehicle id="veh_254" type="1" route="0" color="0.000000,0.000000,1.000000" depart="1148" />
    <vehicle id="veh_255" type="3" route="6" color="0.000000,0.000000,1.000000" depart="1149" />
    <vehicle id="veh_256" type="2" route="11" color="1.000000,0.000000,0.000000" depart="1152" />
    <vehicle id="veh_257" type="0" route="1" color="0.000000,1.000000,0.000000" depart="1155" />
    <vehicle id="veh_258" type="0" route="4" color="1.000000,0.000000,0.000000" depart="1172" />
    <vehicle id="veh_259" type="1" route="8" color="0.000000,0.000000,1.000000" depart="1176" />
    <vehicle id="veh_260" type="1" route="4" color="1.000000,0.000000,0.000000" depart="1179" />
    <vehicle id="veh_261" type="1" route="3" color="1.000000,0.000000,1.000000" depart="1180" />
    <vehicle id="veh_262" type="2" route="9" color="1.000000,1.000000,0.000000" depart="1180" />
    <vehicle id="veh_263" type="3" route="1" color="0.000000,1.000000,1.000000" depart="1184" />
    <vehicle id="veh_264" type="2" route="3" color="1.000000,0.000000,0.000000" depart="1197" />
    <vehicle id="veh_265" type="3" route="10" color="1.000000,0.000000,0.000000" depart="1197" />
    <vehicle id="veh_266" type="0" route="2" color="0.000000,0.000000,1.000000" depart="1198" />
    <vehicle id="veh_267" type="1" route="11" color="1.000000,0.000000,1.000000" depart="1200" />
    <vehicle id="veh_268" type="3" route="0" color="0.000000,1.000000,0.000000" depart="1204" />
    <vehicle id="veh_269" type="2" route="10" color="0.000000,1.000000,1.000000" depart="1204" />
    <vehicle id="veh_270" type="1" route="3" color="1.000000,0.000000,0.000000" depart="1207" />
    <vehicle id="veh_271" type="3" route="6" color="1.000000,0.000000,0.000000" depart="1207" />
    <vehicle id="veh_272" type="1" route="2" color="0.000000,1.000000,0.000000" depart="1211" />
    <vehicle id="veh_273" type="1" route="9" color="0.000000,0.000000,1.000000" depart="1216" />
    <vehicle id="veh_274" type="1" route="7" color="0.000000,1.000000,0.000000" depart="1224" />
    <vehicle id="veh_275" type="2" route="5" color="1.000000,0.000000,0.000000" depart="1227" />
    <vehicle id="veh_276" type="0" route="0" color="0.000000,1.000000,0.000000" depart="1228" />
    <vehicle id="veh_277" type="0" route="10" color="0.000000,0.000000,1.000000" depart="1239" />
    <vehicle id="veh_278" type="2" route="11" color="1.000000,0.000000,0.000000" depart="1243" />
    <vehicle id="veh_279" type="2" route="5" color="1.000000,1.000000,0.000000" depart="1249" />
    <vehicle id="veh_280" type="0" route="8" color="0.000000,1.000000,1.000000" depart="1250" />
    <vehicle id="veh_281" type="2" route="6" color="1.000000,1.000000,0.000000" depart="1252" />
    <vehicle id="veh_282" type="2" route="6" color="1.000000,1.000000,1.000000" depart="1266" />
    <vehicle id="veh_283" type="2" route="4" color="0.000000,1.000000,1.000000" depart="1271" />
    <vehicle id="veh_284" type="0" route="4" color="0.000000,1.000000,1.000000" depart="1284" />
    <vehicle id="veh_285" type="2" route="0" color="1.000000,0.000000,1.000000" depart="1290" />
    <vehicle id="veh_286" type="1" route="3" color="1.000000,0.000000,1.000000" depart="1292" />
    <vehicle id="veh_287" type="1" route="7" color="1.000000,0.000000,0.000000" depart="1297" />
    <vehicle id="veh_288" type="0" route="2" color="0.000000,1.000000,0.000000" depart="1302" />
    <vehicle id="veh_289" type="3" route="2" color="0.000000,0.000000,1.000000" depart="1306" />
    <vehicle id="veh_290" type="0" route="11" color="1.000000,1.000000,0.000000" depart="1307" />
    <vehicle id="veh_291" type="3" route="3" color="1.000000,1.000000,0.000000" depart="1311" />
    <vehicle id="veh_292" type="1" route="6" color="0.000000,0.000000,1.000000" depart="1315" />
    <vehicle id="veh_293" type="1" route="7" color="0.000000,0.000000,1.000000" depart="1317" />
    <vehicle id="veh_294" type="1" route="0" color="1.000000,0.000000,0.000000" depart="1322" />
    <vehicle id="veh_295" type="2" route="6" color="1.000000,0.000000,0.000000" depart="1327" />
    <vehicle id="veh_296" type="0" route="9" color="1.000000,1.000000,1.000000" depart="1331" />
    <vehicle id="veh_297" type="2" route="1" color="1.000000,0.000000,0.000000" depart="1334" />
    <vehicle id="veh_298" type="2" route="8" color="1.000000,0.000000,1.000000" depart="1338" />
    <vehicle id="veh_299" type="2" route="8" color="0.000000,1.000000,1.000000" depart="1345" />
    <vehicle id="veh_300" type="0" route="8" color="1.000000,1.000000,1.000000" depart="1348" />